LTspice 26.0.1 for Windows
Circuit: C:\Users\madha\Desktop\AIC\Assignment 2\q3_copy.net
Start Time: Tue Feb 24 14:11:44 2026
C:\Users\madha\Desktop\AIC\Assignment 2\ts18sl_scl.lib(436): Ignoring unknown model parameter. This may or may not be a problem.
+ binflag = 1 lref = 1e14 wref = 1e14 tref = 25 
  ^^^^^^^^^^^^
C:\Users\madha\Desktop\AIC\Assignment 2\ts18sl_scl.lib(436): Ignoring unknown model parameter. This may or may not be a problem.
+ binflag = 1 lref = 1e14 wref = 1e14 tref = 25 
              ^^^^^^^^^^^^
C:\Users\madha\Desktop\AIC\Assignment 2\ts18sl_scl.lib(436): Ignoring unknown model parameter. This may or may not be a problem.
+ binflag = 1 lref = 1e14 wref = 1e14 tref = 25 
                          ^^^^^^^^^^^^
C:\Users\madha\Desktop\AIC\Assignment 2\ts18sl_scl.lib(437): Ignoring unknown model parameter. This may or may not be a problem.
+ xl = 0 xw = 0 lmlt = 1 wmlt = 1 
                ^^^^^^^^^
C:\Users\madha\Desktop\AIC\Assignment 2\ts18sl_scl.lib(437): Ignoring unknown model parameter. This may or may not be a problem.
+ xl = 0 xw = 0 lmlt = 1 wmlt = 1 
+ rd = 0 rdc = 0 rs = 0 rsc = 0 
                         ^^^^^^^^^^^^
C:\Users\madha\Desktop\AIC\Assignment 2\ts18sl_scl.lib(438): Ignoring unknown model parameter. This may or may not be a problem.
+ rd = 0 rdc = 0 rs = 0 rsc = 0 
         ^^^^^^^^
C:\Users\madha\Desktop\AIC\Assignment 2\ts18sl_scl.lib(438): Ignoring unknown model parameter. This may or may not be a problem.
+ rd = 0 rdc = 0 rs = 0 rsc = 0 
+ acm = 12 hdif = 0.15e-6 ldif = 0 calcacm = 1 )
                        ^^^^^^^^^^^
C:\Users\madha\Desktop\AIC\Assignment 2\ts18sl_scl.lib(500): Ignoring unknown model parameter. This may or may not be a problem.
+ binflag = 1 lref = 1e14 wref = 1e14 tref = 25 
  ^^^^^^^^^^^^
C:\Users\madha\Desktop\AIC\Assignment 2\ts18sl_scl.lib(500): Ignoring unknown model parameter. This may or may not be a problem.
+ binflag = 1 lref = 1e14 wref = 1e14 tref = 25 
              ^^^^^^^^^^^^
C:\Users\madha\Desktop\AIC\Assignment 2\ts18sl_scl.lib(500): Ignoring unknown model parameter. This may or may not be a problem.
+ binflag = 1 lref = 1e14 wref = 1e14 tref = 25 
                          ^^^^^^^^^^^^
C:\Users\madha\Desktop\AIC\Assignment 2\ts18sl_scl.lib(501): Ignoring unknown model parameter. This may or may not be a problem.
+ xl = 0 xw = 0 lmlt = 1 wmlt = 1 
                ^^^^^^^^^
C:\Users\madha\Desktop\AIC\Assignment 2\ts18sl_scl.lib(501): Ignoring unknown model parameter. This may or may not be a problem.
+ xl = 0 xw = 0 lmlt = 1 wmlt = 1 
+ rd = 0 rdc = 0 rs = 0 rsc = 0 
                         ^^^^^^^^^^^^
C:\Users\madha\Desktop\AIC\Assignment 2\ts18sl_scl.lib(502): Ignoring unknown model parameter. This may or may not be a problem.
+ rd = 0 rdc = 0 rs = 0 rsc = 0 
         ^^^^^^^^
C:\Users\madha\Desktop\AIC\Assignment 2\ts18sl_scl.lib(502): Ignoring unknown model parameter. This may or may not be a problem.
+ rd = 0 rdc = 0 rs = 0 rsc = 0 
+ acm = 12 hdif = 0.15e-6 ldif = 0 calcacm = 1 )
                        ^^^^^^^^^^^
C:\Users\madha\Desktop\AIC\Assignment 2\ts18sl_scl.lib(564): Ignoring unknown model parameter. This may or may not be a problem.
+ binflag = 1 lref = 1e14 wref = 1e14 tref = 25 
  ^^^^^^^^^^^^
C:\Users\madha\Desktop\AIC\Assignment 2\ts18sl_scl.lib(564): Ignoring unknown model parameter. This may or may not be a problem.
+ binflag = 1 lref = 1e14 wref = 1e14 tref = 25 
              ^^^^^^^^^^^^
C:\Users\madha\Desktop\AIC\Assignment 2\ts18sl_scl.lib(564): Ignoring unknown model parameter. This may or may not be a problem.
+ binflag = 1 lref = 1e14 wref = 1e14 tref = 25 
                          ^^^^^^^^^^^^
C:\Users\madha\Desktop\AIC\Assignment 2\ts18sl_scl.lib(565): Ignoring unknown model parameter. This may or may not be a problem.
+ xl = 0 xw = 0 lmlt = 1 wmlt = 1 
                ^^^^^^^^^
C:\Users\madha\Desktop\AIC\Assignment 2\ts18sl_scl.lib(565): Ignoring unknown model parameter. This may or may not be a problem.
+ xl = 0 xw = 0 lmlt = 1 wmlt = 1 
+ rd = 0 rdc = 0 rs = 0 rsc = 0 
                         ^^^^^^^^^^^^
C:\Users\madha\Desktop\AIC\Assignment 2\ts18sl_scl.lib(566): Ignoring unknown model parameter. This may or may not be a problem.
+ rd = 0 rdc = 0 rs = 0 rsc = 0 
         ^^^^^^^^
C:\Users\madha\Desktop\AIC\Assignment 2\ts18sl_scl.lib(566): Ignoring unknown model parameter. This may or may not be a problem.
+ rd = 0 rdc = 0 rs = 0 rsc = 0 
+ acm = 12 hdif = 0.15e-6 ldif = 0 calcacm = 1 )
                        ^^^^^^^^^^^
C:\Users\madha\Desktop\AIC\Assignment 2\ts18sl_scl.lib(628): Ignoring unknown model parameter. This may or may not be a problem.
+ binflag = 1 lref = 1e14 wref = 1e14 tref = 25 
  ^^^^^^^^^^^^
C:\Users\madha\Desktop\AIC\Assignment 2\ts18sl_scl.lib(628): Ignoring unknown model parameter. This may or may not be a problem.
+ binflag = 1 lref = 1e14 wref = 1e14 tref = 25 
              ^^^^^^^^^^^^
C:\Users\madha\Desktop\AIC\Assignment 2\ts18sl_scl.lib(628): Ignoring unknown model parameter. This may or may not be a problem.
+ binflag = 1 lref = 1e14 wref = 1e14 tref = 25 
                          ^^^^^^^^^^^^
C:\Users\madha\Desktop\AIC\Assignment 2\ts18sl_scl.lib(629): Ignoring unknown model parameter. This may or may not be a problem.
+ xl = 0 xw = 0 lmlt = 1 wmlt = 1 
                ^^^^^^^^^
C:\Users\madha\Desktop\AIC\Assignment 2\ts18sl_scl.lib(629): Ignoring unknown model parameter. This may or may not be a problem.
+ xl = 0 xw = 0 lmlt = 1 wmlt = 1 
+ rd = 0 rdc = 0 rs = 0 rsc = 0 
                         ^^^^^^^^^^^^
C:\Users\madha\Desktop\AIC\Assignment 2\ts18sl_scl.lib(630): Ignoring unknown model parameter. This may or may not be a problem.
+ rd = 0 rdc = 0 rs = 0 rsc = 0 
         ^^^^^^^^
C:\Users\madha\Desktop\AIC\Assignment 2\ts18sl_scl.lib(630): Ignoring unknown model parameter. This may or may not be a problem.
+ rd = 0 rdc = 0 rs = 0 rsc = 0 
+ acm = 12 hdif = 0.15e-6 ldif = 0 calcacm = 1 )
                        ^^^^^^^^^^^
C:\Users\madha\Desktop\AIC\Assignment 2\ts18sl_scl.lib(692): Ignoring unknown model parameter. This may or may not be a problem.
+ binflag = 1 lref = 1e14 wref = 1e14 tref = 25 
  ^^^^^^^^^^^^
C:\Users\madha\Desktop\AIC\Assignment 2\ts18sl_scl.lib(692): Ignoring unknown model parameter. This may or may not be a problem.
+ binflag = 1 lref = 1e14 wref = 1e14 tref = 25 
              ^^^^^^^^^^^^
C:\Users\madha\Desktop\AIC\Assignment 2\ts18sl_scl.lib(692): Ignoring unknown model parameter. This may or may not be a problem.
+ binflag = 1 lref = 1e14 wref = 1e14 tref = 25 
                          ^^^^^^^^^^^^
C:\Users\madha\Desktop\AIC\Assignment 2\ts18sl_scl.lib(693): Ignoring unknown model parameter. This may or may not be a problem.
+ xl = 0 xw = 0 lmlt = 1 wmlt = 1 
                ^^^^^^^^^
C:\Users\madha\Desktop\AIC\Assignment 2\ts18sl_scl.lib(693): Ignoring unknown model parameter. This may or may not be a problem.
+ xl = 0 xw = 0 lmlt = 1 wmlt = 1 
+ rd = 0 rdc = 0 rs = 0 rsc = 0 
                         ^^^^^^^^^^^^
C:\Users\madha\Desktop\AIC\Assignment 2\ts18sl_scl.lib(694): Ignoring unknown model parameter. This may or may not be a problem.
+ rd = 0 rdc = 0 rs = 0 rsc = 0 
         ^^^^^^^^
C:\Users\madha\Desktop\AIC\Assignment 2\ts18sl_scl.lib(694): Ignoring unknown model parameter. This may or may not be a problem.
+ rd = 0 rdc = 0 rs = 0 rsc = 0 
+ acm = 12 hdif = 0.15e-6 ldif = 0 calcacm = 1 )
                        ^^^^^^^^^^^
C:\Users\madha\Desktop\AIC\Assignment 2\ts18sl_scl.lib(756): Ignoring unknown model parameter. This may or may not be a problem.
+ binflag = 1 lref = 1e14 wref = 1e14 tref = 25 
  ^^^^^^^^^^^^
C:\Users\madha\Desktop\AIC\Assignment 2\ts18sl_scl.lib(756): Ignoring unknown model parameter. This may or may not be a problem.
+ binflag = 1 lref = 1e14 wref = 1e14 tref = 25 
              ^^^^^^^^^^^^
C:\Users\madha\Desktop\AIC\Assignment 2\ts18sl_scl.lib(756): Ignoring unknown model parameter. This may or may not be a problem.
+ binflag = 1 lref = 1e14 wref = 1e14 tref = 25 
                          ^^^^^^^^^^^^
C:\Users\madha\Desktop\AIC\Assignment 2\ts18sl_scl.lib(757): Ignoring unknown model parameter. This may or may not be a problem.
+ xl = 0 xw = 0 lmlt = 1 wmlt = 1 
                ^^^^^^^^^
C:\Users\madha\Desktop\AIC\Assignment 2\ts18sl_scl.lib(757): Ignoring unknown model parameter. This may or may not be a problem.
+ xl = 0 xw = 0 lmlt = 1 wmlt = 1 
+ rd = 0 rdc = 0 rs = 0 rsc = 0 
                         ^^^^^^^^^^^^
C:\Users\madha\Desktop\AIC\Assignment 2\ts18sl_scl.lib(758): Ignoring unknown model parameter. This may or may not be a problem.
+ rd = 0 rdc = 0 rs = 0 rsc = 0 
         ^^^^^^^^
C:\Users\madha\Desktop\AIC\Assignment 2\ts18sl_scl.lib(758): Ignoring unknown model parameter. This may or may not be a problem.
+ rd = 0 rdc = 0 rs = 0 rsc = 0 
+ acm = 12 hdif = 0.15e-6 ldif = 0 calcacm = 1 )
                        ^^^^^^^^^^^
C:\Users\madha\Desktop\AIC\Assignment 2\ts18sl_scl.lib(820): Ignoring unknown model parameter. This may or may not be a problem.
+ binflag = 1 lref = 1e14 wref = 1e14 tref = 25 
  ^^^^^^^^^^^^
C:\Users\madha\Desktop\AIC\Assignment 2\ts18sl_scl.lib(820): Ignoring unknown model parameter. This may or may not be a problem.
+ binflag = 1 lref = 1e14 wref = 1e14 tref = 25 
              ^^^^^^^^^^^^
C:\Users\madha\Desktop\AIC\Assignment 2\ts18sl_scl.lib(820): Ignoring unknown model parameter. This may or may not be a problem.
+ binflag = 1 lref = 1e14 wref = 1e14 tref = 25 
                          ^^^^^^^^^^^^
C:\Users\madha\Desktop\AIC\Assignment 2\ts18sl_scl.lib(821): Ignoring unknown model parameter. This may or may not be a problem.
+ xl = 0 xw = 0 lmlt = 1 wmlt = 1 
                ^^^^^^^^^
C:\Users\madha\Desktop\AIC\Assignment 2\ts18sl_scl.lib(821): Ignoring unknown model parameter. This may or may not be a problem.
+ xl = 0 xw = 0 lmlt = 1 wmlt = 1 
+ rd = 0 rdc = 0 rs = 0 rsc = 0 
                         ^^^^^^^^^^^^
C:\Users\madha\Desktop\AIC\Assignment 2\ts18sl_scl.lib(822): Ignoring unknown model parameter. This may or may not be a problem.
+ rd = 0 rdc = 0 rs = 0 rsc = 0 
         ^^^^^^^^
C:\Users\madha\Desktop\AIC\Assignment 2\ts18sl_scl.lib(822): Ignoring unknown model parameter. This may or may not be a problem.
+ rd = 0 rdc = 0 rs = 0 rsc = 0 
+ acm = 12 hdif = 0.15e-6 ldif = 0 calcacm = 1 )
                        ^^^^^^^^^^^
C:\Users\madha\Desktop\AIC\Assignment 2\ts18sl_scl.lib(884): Ignoring unknown model parameter. This may or may not be a problem.
+ binflag = 1 lref = 1e14 wref = 1e14 tref = 25 
  ^^^^^^^^^^^^
C:\Users\madha\Desktop\AIC\Assignment 2\ts18sl_scl.lib(884): Ignoring unknown model parameter. This may or may not be a problem.
+ binflag = 1 lref = 1e14 wref = 1e14 tref = 25 
              ^^^^^^^^^^^^
C:\Users\madha\Desktop\AIC\Assignment 2\ts18sl_scl.lib(884): Ignoring unknown model parameter. This may or may not be a problem.
+ binflag = 1 lref = 1e14 wref = 1e14 tref = 25 
                          ^^^^^^^^^^^^
C:\Users\madha\Desktop\AIC\Assignment 2\ts18sl_scl.lib(885): Ignoring unknown model parameter. This may or may not be a problem.
+ xl = 0 xw = 0 lmlt = 1 wmlt = 1 
                ^^^^^^^^^
C:\Users\madha\Desktop\AIC\Assignment 2\ts18sl_scl.lib(885): Ignoring unknown model parameter. This may or may not be a problem.
+ xl = 0 xw = 0 lmlt = 1 wmlt = 1 
+ rd = 0 rdc = 0 rs = 0 rsc = 0 
                         ^^^^^^^^^^^^
C:\Users\madha\Desktop\AIC\Assignment 2\ts18sl_scl.lib(886): Ignoring unknown model parameter. This may or may not be a problem.
+ rd = 0 rdc = 0 rs = 0 rsc = 0 
         ^^^^^^^^
C:\Users\madha\Desktop\AIC\Assignment 2\ts18sl_scl.lib(886): Ignoring unknown model parameter. This may or may not be a problem.
+ rd = 0 rdc = 0 rs = 0 rsc = 0 
+ acm = 12 hdif = 0.15e-6 ldif = 0 calcacm = 1 )
                        ^^^^^^^^^^^
C:\Users\madha\Desktop\AIC\Assignment 2\ts18sl_scl.lib(948): Ignoring unknown model parameter. This may or may not be a problem.
+ binflag = 1 lref = 1e14 wref = 1e14 tref = 25 
  ^^^^^^^^^^^^
C:\Users\madha\Desktop\AIC\Assignment 2\ts18sl_scl.lib(948): Ignoring unknown model parameter. This may or may not be a problem.
+ binflag = 1 lref = 1e14 wref = 1e14 tref = 25 
              ^^^^^^^^^^^^
C:\Users\madha\Desktop\AIC\Assignment 2\ts18sl_scl.lib(948): Ignoring unknown model parameter. This may or may not be a problem.
+ binflag = 1 lref = 1e14 wref = 1e14 tref = 25 
                          ^^^^^^^^^^^^
C:\Users\madha\Desktop\AIC\Assignment 2\ts18sl_scl.lib(949): Ignoring unknown model parameter. This may or may not be a problem.
+ xl = 0 xw = 0 lmlt = 1 wmlt = 1 
                ^^^^^^^^^
C:\Users\madha\Desktop\AIC\Assignment 2\ts18sl_scl.lib(949): Ignoring unknown model parameter. This may or may not be a problem.
+ xl = 0 xw = 0 lmlt = 1 wmlt = 1 
+ rd = 0 rdc = 0 rs = 0 rsc = 0 
                         ^^^^^^^^^^^^
C:\Users\madha\Desktop\AIC\Assignment 2\ts18sl_scl.lib(950): Ignoring unknown model parameter. This may or may not be a problem.
+ rd = 0 rdc = 0 rs = 0 rsc = 0 
         ^^^^^^^^
C:\Users\madha\Desktop\AIC\Assignment 2\ts18sl_scl.lib(950): Ignoring unknown model parameter. This may or may not be a problem.
+ rd = 0 rdc = 0 rs = 0 rsc = 0 
+ acm = 12 hdif = 0.15e-6 ldif = 0 calcacm = 1 )
                        ^^^^^^^^^^^
C:\Users\madha\Desktop\AIC\Assignment 2\ts18sl_scl.lib(1012): Ignoring unknown model parameter. This may or may not be a problem.
+ binflag = 1 lref = 1e14 wref = 1e14 tref = 25 
  ^^^^^^^^^^^^
C:\Users\madha\Desktop\AIC\Assignment 2\ts18sl_scl.lib(1012): Ignoring unknown model parameter. This may or may not be a problem.
+ binflag = 1 lref = 1e14 wref = 1e14 tref = 25 
              ^^^^^^^^^^^^
C:\Users\madha\Desktop\AIC\Assignment 2\ts18sl_scl.lib(1012): Ignoring unknown model parameter. This may or may not be a problem.
+ binflag = 1 lref = 1e14 wref = 1e14 tref = 25 
                          ^^^^^^^^^^^^
C:\Users\madha\Desktop\AIC\Assignment 2\ts18sl_scl.lib(1013): Ignoring unknown model parameter. This may or may not be a problem.
+ xl = 0 xw = 0 lmlt = 1 wmlt = 1 
                ^^^^^^^^^
C:\Users\madha\Desktop\AIC\Assignment 2\ts18sl_scl.lib(1013): Ignoring unknown model parameter. This may or may not be a problem.
+ xl = 0 xw = 0 lmlt = 1 wmlt = 1 
+ rd = 0 rdc = 0 rs = 0 rsc = 0 
                         ^^^^^^^^^^^^
C:\Users\madha\Desktop\AIC\Assignment 2\ts18sl_scl.lib(1014): Ignoring unknown model parameter. This may or may not be a problem.
+ rd = 0 rdc = 0 rs = 0 rsc = 0 
         ^^^^^^^^
C:\Users\madha\Desktop\AIC\Assignment 2\ts18sl_scl.lib(1014): Ignoring unknown model parameter. This may or may not be a problem.
+ rd = 0 rdc = 0 rs = 0 rsc = 0 
+ acm = 12 hdif = 0.15e-6 ldif = 0 calcacm = 1 )
                        ^^^^^^^^^^^
C:\Users\madha\Desktop\AIC\Assignment 2\ts18sl_scl.lib(1075): Ignoring unknown model parameter. This may or may not be a problem.
+ binflag = 1 lref = 1e14 wref = 1e14 tref = 25 
  ^^^^^^^^^^^^
C:\Users\madha\Desktop\AIC\Assignment 2\ts18sl_scl.lib(1075): Ignoring unknown model parameter. This may or may not be a problem.
+ binflag = 1 lref = 1e14 wref = 1e14 tref = 25 
              ^^^^^^^^^^^^
C:\Users\madha\Desktop\AIC\Assignment 2\ts18sl_scl.lib(1075): Ignoring unknown model parameter. This may or may not be a problem.
+ binflag = 1 lref = 1e14 wref = 1e14 tref = 25 
                          ^^^^^^^^^^^^
C:\Users\madha\Desktop\AIC\Assignment 2\ts18sl_scl.lib(1076): Ignoring unknown model parameter. This may or may not be a problem.
+ xl = 0 xw = 0 lmlt = 1 wmlt = 1 
                ^^^^^^^^^
C:\Users\madha\Desktop\AIC\Assignment 2\ts18sl_scl.lib(1076): Ignoring unknown model parameter. This may or may not be a problem.
+ xl = 0 xw = 0 lmlt = 1 wmlt = 1 
+ rd = 0 rdc = 0 rs = 0 rsc = 0 
                         ^^^^^^^^^^^^
C:\Users\madha\Desktop\AIC\Assignment 2\ts18sl_scl.lib(1077): Ignoring unknown model parameter. This may or may not be a problem.
+ rd = 0 rdc = 0 rs = 0 rsc = 0 
         ^^^^^^^^
C:\Users\madha\Desktop\AIC\Assignment 2\ts18sl_scl.lib(1077): Ignoring unknown model parameter. This may or may not be a problem.
+ rd = 0 rdc = 0 rs = 0 rsc = 0 
+ acm = 12 hdif = 0.15e-6 ldif = 0 calcacm = 1 )
                        ^^^^^^^^^^^
C:\Users\madha\Desktop\AIC\Assignment 2\ts18sl_scl.lib(1138): Ignoring unknown model parameter. This may or may not be a problem.
+ binflag = 1 lref = 1e14 wref = 1e14 tref = 25 
  ^^^^^^^^^^^^
C:\Users\madha\Desktop\AIC\Assignment 2\ts18sl_scl.lib(1138): Ignoring unknown model parameter. This may or may not be a problem.
+ binflag = 1 lref = 1e14 wref = 1e14 tref = 25 
              ^^^^^^^^^^^^
C:\Users\madha\Desktop\AIC\Assignment 2\ts18sl_scl.lib(1138): Ignoring unknown model parameter. This may or may not be a problem.
+ binflag = 1 lref = 1e14 wref = 1e14 tref = 25 
                          ^^^^^^^^^^^^
C:\Users\madha\Desktop\AIC\Assignment 2\ts18sl_scl.lib(1139): Ignoring unknown model parameter. This may or may not be a problem.
+ xl = 0 xw = 0 lmlt = 1 wmlt = 1 
                ^^^^^^^^^
C:\Users\madha\Desktop\AIC\Assignment 2\ts18sl_scl.lib(1139): Ignoring unknown model parameter. This may or may not be a problem.
+ xl = 0 xw = 0 lmlt = 1 wmlt = 1 
+ rd = 0 rdc = 0 rs = 0 rsc = 0 
                         ^^^^^^^^^^^^
C:\Users\madha\Desktop\AIC\Assignment 2\ts18sl_scl.lib(1140): Ignoring unknown model parameter. This may or may not be a problem.
+ rd = 0 rdc = 0 rs = 0 rsc = 0 
         ^^^^^^^^
C:\Users\madha\Desktop\AIC\Assignment 2\ts18sl_scl.lib(1140): Ignoring unknown model parameter. This may or may not be a problem.
+ rd = 0 rdc = 0 rs = 0 rsc = 0 
+ acm = 12 hdif = 0.15e-6 ldif = 0 calcacm = 1 )
                        ^^^^^^^^^^^
C:\Users\madha\Desktop\AIC\Assignment 2\ts18sl_scl.lib(1201): Ignoring unknown model parameter. This may or may not be a problem.
+ binflag = 1 lref = 1e14 wref = 1e14 tref = 25 
  ^^^^^^^^^^^^
C:\Users\madha\Desktop\AIC\Assignment 2\ts18sl_scl.lib(1201): Ignoring unknown model parameter. This may or may not be a problem.
+ binflag = 1 lref = 1e14 wref = 1e14 tref = 25 
              ^^^^^^^^^^^^
C:\Users\madha\Desktop\AIC\Assignment 2\ts18sl_scl.lib(1201): Ignoring unknown model parameter. This may or may not be a problem.
+ binflag = 1 lref = 1e14 wref = 1e14 tref = 25 
                          ^^^^^^^^^^^^
C:\Users\madha\Desktop\AIC\Assignment 2\ts18sl_scl.lib(1202): Ignoring unknown model parameter. This may or may not be a problem.
+ xl = 0 xw = 0 lmlt = 1 wmlt = 1 
                ^^^^^^^^^
C:\Users\madha\Desktop\AIC\Assignment 2\ts18sl_scl.lib(1202): Ignoring unknown model parameter. This may or may not be a problem.
+ xl = 0 xw = 0 lmlt = 1 wmlt = 1 
+ rd = 0 rdc = 0 rs = 0 rsc = 0 
                         ^^^^^^^^^^^^
C:\Users\madha\Desktop\AIC\Assignment 2\ts18sl_scl.lib(1203): Ignoring unknown model parameter. This may or may not be a problem.
+ rd = 0 rdc = 0 rs = 0 rsc = 0 
         ^^^^^^^^
C:\Users\madha\Desktop\AIC\Assignment 2\ts18sl_scl.lib(1203): Ignoring unknown model parameter. This may or may not be a problem.
+ rd = 0 rdc = 0 rs = 0 rsc = 0 
+ acm = 12 hdif = 0.15e-6 ldif = 0 calcacm = 1 )
                        ^^^^^^^^^^^
C:\Users\madha\Desktop\AIC\Assignment 2\ts18sl_scl.lib(1264): Ignoring unknown model parameter. This may or may not be a problem.
+ binflag = 1 lref = 1e14 wref = 1e14 tref = 25 
  ^^^^^^^^^^^^
C:\Users\madha\Desktop\AIC\Assignment 2\ts18sl_scl.lib(1264): Ignoring unknown model parameter. This may or may not be a problem.
+ binflag = 1 lref = 1e14 wref = 1e14 tref = 25 
              ^^^^^^^^^^^^
C:\Users\madha\Desktop\AIC\Assignment 2\ts18sl_scl.lib(1264): Ignoring unknown model parameter. This may or may not be a problem.
+ binflag = 1 lref = 1e14 wref = 1e14 tref = 25 
                          ^^^^^^^^^^^^
C:\Users\madha\Desktop\AIC\Assignment 2\ts18sl_scl.lib(1265): Ignoring unknown model parameter. This may or may not be a problem.
+ xl = 0 xw = 0 lmlt = 1 wmlt = 1 
                ^^^^^^^^^
C:\Users\madha\Desktop\AIC\Assignment 2\ts18sl_scl.lib(1265): Ignoring unknown model parameter. This may or may not be a problem.
+ xl = 0 xw = 0 lmlt = 1 wmlt = 1 
+ rd = 0 rdc = 0 rs = 0 rsc = 0 
                         ^^^^^^^^^^^^
C:\Users\madha\Desktop\AIC\Assignment 2\ts18sl_scl.lib(1266): Ignoring unknown model parameter. This may or may not be a problem.
+ rd = 0 rdc = 0 rs = 0 rsc = 0 
         ^^^^^^^^
C:\Users\madha\Desktop\AIC\Assignment 2\ts18sl_scl.lib(1266): Ignoring unknown model parameter. This may or may not be a problem.
+ rd = 0 rdc = 0 rs = 0 rsc = 0 
+ acm = 12 hdif = 0.15e-6 ldif = 0 calcacm = 1 )
                        ^^^^^^^^^^^
C:\Users\madha\Desktop\AIC\Assignment 2\ts18sl_scl.lib(1327): Ignoring unknown model parameter. This may or may not be a problem.
+ binflag = 1 lref = 1e14 wref = 1e14 tref = 25 
  ^^^^^^^^^^^^
C:\Users\madha\Desktop\AIC\Assignment 2\ts18sl_scl.lib(1327): Ignoring unknown model parameter. This may or may not be a problem.
+ binflag = 1 lref = 1e14 wref = 1e14 tref = 25 
              ^^^^^^^^^^^^
C:\Users\madha\Desktop\AIC\Assignment 2\ts18sl_scl.lib(1327): Ignoring unknown model parameter. This may or may not be a problem.
+ binflag = 1 lref = 1e14 wref = 1e14 tref = 25 
                          ^^^^^^^^^^^^
C:\Users\madha\Desktop\AIC\Assignment 2\ts18sl_scl.lib(1328): Ignoring unknown model parameter. This may or may not be a problem.
+ xl = 0 xw = 0 lmlt = 1 wmlt = 1 
                ^^^^^^^^^
C:\Users\madha\Desktop\AIC\Assignment 2\ts18sl_scl.lib(1328): Ignoring unknown model parameter. This may or may not be a problem.
+ xl = 0 xw = 0 lmlt = 1 wmlt = 1 
+ rd = 0 rdc = 0 rs = 0 rsc = 0 
                         ^^^^^^^^^^^^
C:\Users\madha\Desktop\AIC\Assignment 2\ts18sl_scl.lib(1329): Ignoring unknown model parameter. This may or may not be a problem.
+ rd = 0 rdc = 0 rs = 0 rsc = 0 
         ^^^^^^^^
C:\Users\madha\Desktop\AIC\Assignment 2\ts18sl_scl.lib(1329): Ignoring unknown model parameter. This may or may not be a problem.
+ rd = 0 rdc = 0 rs = 0 rsc = 0 
+ acm = 12 hdif = 0.15e-6 ldif = 0 calcacm = 1 )
                        ^^^^^^^^^^^
C:\Users\madha\Desktop\AIC\Assignment 2\ts18sl_scl.lib(1390): Ignoring unknown model parameter. This may or may not be a problem.
+ binflag = 1 lref = 1e14 wref = 1e14 tref = 25 
  ^^^^^^^^^^^^
C:\Users\madha\Desktop\AIC\Assignment 2\ts18sl_scl.lib(1390): Ignoring unknown model parameter. This may or may not be a problem.
+ binflag = 1 lref = 1e14 wref = 1e14 tref = 25 
              ^^^^^^^^^^^^
C:\Users\madha\Desktop\AIC\Assignment 2\ts18sl_scl.lib(1390): Ignoring unknown model parameter. This may or may not be a problem.
+ binflag = 1 lref = 1e14 wref = 1e14 tref = 25 
                          ^^^^^^^^^^^^
C:\Users\madha\Desktop\AIC\Assignment 2\ts18sl_scl.lib(1391): Ignoring unknown model parameter. This may or may not be a problem.
+ xl = 0 xw = 0 lmlt = 1 wmlt = 1 
                ^^^^^^^^^
C:\Users\madha\Desktop\AIC\Assignment 2\ts18sl_scl.lib(1391): Ignoring unknown model parameter. This may or may not be a problem.
+ xl = 0 xw = 0 lmlt = 1 wmlt = 1 
+ rd = 0 rdc = 0 rs = 0 rsc = 0 
                         ^^^^^^^^^^^^
C:\Users\madha\Desktop\AIC\Assignment 2\ts18sl_scl.lib(1392): Ignoring unknown model parameter. This may or may not be a problem.
+ rd = 0 rdc = 0 rs = 0 rsc = 0 
         ^^^^^^^^
C:\Users\madha\Desktop\AIC\Assignment 2\ts18sl_scl.lib(1392): Ignoring unknown model parameter. This may or may not be a problem.
+ rd = 0 rdc = 0 rs = 0 rsc = 0 
+ acm = 12 hdif = 0.15e-6 ldif = 0 calcacm = 1 )
                        ^^^^^^^^^^^
C:\Users\madha\Desktop\AIC\Assignment 2\ts18sl_scl.lib(1453): Ignoring unknown model parameter. This may or may not be a problem.
+ binflag = 1 lref = 1e14 wref = 1e14 tref = 25 
  ^^^^^^^^^^^^
C:\Users\madha\Desktop\AIC\Assignment 2\ts18sl_scl.lib(1453): Ignoring unknown model parameter. This may or may not be a problem.
+ binflag = 1 lref = 1e14 wref = 1e14 tref = 25 
              ^^^^^^^^^^^^
C:\Users\madha\Desktop\AIC\Assignment 2\ts18sl_scl.lib(1453): Ignoring unknown model parameter. This may or may not be a problem.
+ binflag = 1 lref = 1e14 wref = 1e14 tref = 25 
                          ^^^^^^^^^^^^
C:\Users\madha\Desktop\AIC\Assignment 2\ts18sl_scl.lib(1454): Ignoring unknown model parameter. This may or may not be a problem.
+ xl = 0 xw = 0 lmlt = 1 wmlt = 1 
                ^^^^^^^^^
C:\Users\madha\Desktop\AIC\Assignment 2\ts18sl_scl.lib(1454): Ignoring unknown model parameter. This may or may not be a problem.
+ xl = 0 xw = 0 lmlt = 1 wmlt = 1 
+ rd = 0 rdc = 0 rs = 0 rsc = 0 
                         ^^^^^^^^^^^^
C:\Users\madha\Desktop\AIC\Assignment 2\ts18sl_scl.lib(1455): Ignoring unknown model parameter. This may or may not be a problem.
+ rd = 0 rdc = 0 rs = 0 rsc = 0 
         ^^^^^^^^
C:\Users\madha\Desktop\AIC\Assignment 2\ts18sl_scl.lib(1455): Ignoring unknown model parameter. This may or may not be a problem.
+ rd = 0 rdc = 0 rs = 0 rsc = 0 
+ acm = 12 hdif = 0.15e-6 ldif = 0 calcacm = 1 )
                        ^^^^^^^^^^^
C:\Users\madha\Desktop\AIC\Assignment 2\ts18sl_scl.lib(1516): Ignoring unknown model parameter. This may or may not be a problem.
+ binflag = 1 lref = 1e14 wref = 1e14 tref = 25 
  ^^^^^^^^^^^^
C:\Users\madha\Desktop\AIC\Assignment 2\ts18sl_scl.lib(1516): Ignoring unknown model parameter. This may or may not be a problem.
+ binflag = 1 lref = 1e14 wref = 1e14 tref = 25 
              ^^^^^^^^^^^^
C:\Users\madha\Desktop\AIC\Assignment 2\ts18sl_scl.lib(1516): Ignoring unknown model parameter. This may or may not be a problem.
+ binflag = 1 lref = 1e14 wref = 1e14 tref = 25 
                          ^^^^^^^^^^^^
C:\Users\madha\Desktop\AIC\Assignment 2\ts18sl_scl.lib(1517): Ignoring unknown model parameter. This may or may not be a problem.
+ xl = 0 xw = 0 lmlt = 1 wmlt = 1 
                ^^^^^^^^^
C:\Users\madha\Desktop\AIC\Assignment 2\ts18sl_scl.lib(1517): Ignoring unknown model parameter. This may or may not be a problem.
+ xl = 0 xw = 0 lmlt = 1 wmlt = 1 
+ rd = 0 rdc = 0 rs = 0 rsc = 0 
                         ^^^^^^^^^^^^
C:\Users\madha\Desktop\AIC\Assignment 2\ts18sl_scl.lib(1518): Ignoring unknown model parameter. This may or may not be a problem.
+ rd = 0 rdc = 0 rs = 0 rsc = 0 
         ^^^^^^^^
C:\Users\madha\Desktop\AIC\Assignment 2\ts18sl_scl.lib(1518): Ignoring unknown model parameter. This may or may not be a problem.
+ rd = 0 rdc = 0 rs = 0 rsc = 0 
+ acm = 12 hdif = 0.15e-6 ldif = 0 calcacm = 1 )
                        ^^^^^^^^^^^
Ignoring BSIM parameter XL
Ignoring BSIM parameter XW
Ignoring BSIM parameter ACM
Ignoring BSIM parameter HDIF
Ignoring BSIM parameter LDIF
Ignoring BSIM parameter CALCACM
solver = Normal
Maximum thread count: 16
tnom = 27
temp = 27
method = modified trap
.step lambda=9e-08
C:\Users\madha\Desktop\AIC\Assignment 2\ts18sl_scl.lib(436): Ignoring unknown model parameter. This may or may not be a problem.
+ binflag = 1 lref = 1e14 wref = 1e14 tref = 25 
  ^^^^^^^^^^^^
C:\Users\madha\Desktop\AIC\Assignment 2\ts18sl_scl.lib(436): Ignoring unknown model parameter. This may or may not be a problem.
+ binflag = 1 lref = 1e14 wref = 1e14 tref = 25 
              ^^^^^^^^^^^^
C:\Users\madha\Desktop\AIC\Assignment 2\ts18sl_scl.lib(436): Ignoring unknown model parameter. This may or may not be a problem.
+ binflag = 1 lref = 1e14 wref = 1e14 tref = 25 
                          ^^^^^^^^^^^^
C:\Users\madha\Desktop\AIC\Assignment 2\ts18sl_scl.lib(437): Ignoring unknown model parameter. This may or may not be a problem.
+ xl = 0 xw = 0 lmlt = 1 wmlt = 1 
                ^^^^^^^^^
C:\Users\madha\Desktop\AIC\Assignment 2\ts18sl_scl.lib(437): Ignoring unknown model parameter. This may or may not be a problem.
+ xl = 0 xw = 0 lmlt = 1 wmlt = 1 
+ rd = 0 rdc = 0 rs = 0 rsc = 0 
                         ^^^^^^^^^^^^
C:\Users\madha\Desktop\AIC\Assignment 2\ts18sl_scl.lib(438): Ignoring unknown model parameter. This may or may not be a problem.
+ rd = 0 rdc = 0 rs = 0 rsc = 0 
         ^^^^^^^^
C:\Users\madha\Desktop\AIC\Assignment 2\ts18sl_scl.lib(438): Ignoring unknown model parameter. This may or may not be a problem.
+ rd = 0 rdc = 0 rs = 0 rsc = 0 
+ acm = 12 hdif = 0.15e-6 ldif = 0 calcacm = 1 )
                        ^^^^^^^^^^^
C:\Users\madha\Desktop\AIC\Assignment 2\ts18sl_scl.lib(500): Ignoring unknown model parameter. This may or may not be a problem.
+ binflag = 1 lref = 1e14 wref = 1e14 tref = 25 
  ^^^^^^^^^^^^
C:\Users\madha\Desktop\AIC\Assignment 2\ts18sl_scl.lib(500): Ignoring unknown model parameter. This may or may not be a problem.
+ binflag = 1 lref = 1e14 wref = 1e14 tref = 25 
              ^^^^^^^^^^^^
C:\Users\madha\Desktop\AIC\Assignment 2\ts18sl_scl.lib(500): Ignoring unknown model parameter. This may or may not be a problem.
+ binflag = 1 lref = 1e14 wref = 1e14 tref = 25 
                          ^^^^^^^^^^^^
C:\Users\madha\Desktop\AIC\Assignment 2\ts18sl_scl.lib(501): Ignoring unknown model parameter. This may or may not be a problem.
+ xl = 0 xw = 0 lmlt = 1 wmlt = 1 
                ^^^^^^^^^
C:\Users\madha\Desktop\AIC\Assignment 2\ts18sl_scl.lib(501): Ignoring unknown model parameter. This may or may not be a problem.
+ xl = 0 xw = 0 lmlt = 1 wmlt = 1 
+ rd = 0 rdc = 0 rs = 0 rsc = 0 
                         ^^^^^^^^^^^^
C:\Users\madha\Desktop\AIC\Assignment 2\ts18sl_scl.lib(502): Ignoring unknown model parameter. This may or may not be a problem.
+ rd = 0 rdc = 0 rs = 0 rsc = 0 
         ^^^^^^^^
C:\Users\madha\Desktop\AIC\Assignment 2\ts18sl_scl.lib(502): Ignoring unknown model parameter. This may or may not be a problem.
+ rd = 0 rdc = 0 rs = 0 rsc = 0 
+ acm = 12 hdif = 0.15e-6 ldif = 0 calcacm = 1 )
                        ^^^^^^^^^^^
C:\Users\madha\Desktop\AIC\Assignment 2\ts18sl_scl.lib(564): Ignoring unknown model parameter. This may or may not be a problem.
+ binflag = 1 lref = 1e14 wref = 1e14 tref = 25 
  ^^^^^^^^^^^^
C:\Users\madha\Desktop\AIC\Assignment 2\ts18sl_scl.lib(564): Ignoring unknown model parameter. This may or may not be a problem.
+ binflag = 1 lref = 1e14 wref = 1e14 tref = 25 
              ^^^^^^^^^^^^
C:\Users\madha\Desktop\AIC\Assignment 2\ts18sl_scl.lib(564): Ignoring unknown model parameter. This may or may not be a problem.
+ binflag = 1 lref = 1e14 wref = 1e14 tref = 25 
                          ^^^^^^^^^^^^
C:\Users\madha\Desktop\AIC\Assignment 2\ts18sl_scl.lib(565): Ignoring unknown model parameter. This may or may not be a problem.
+ xl = 0 xw = 0 lmlt = 1 wmlt = 1 
                ^^^^^^^^^
C:\Users\madha\Desktop\AIC\Assignment 2\ts18sl_scl.lib(565): Ignoring unknown model parameter. This may or may not be a problem.
+ xl = 0 xw = 0 lmlt = 1 wmlt = 1 
+ rd = 0 rdc = 0 rs = 0 rsc = 0 
                         ^^^^^^^^^^^^
C:\Users\madha\Desktop\AIC\Assignment 2\ts18sl_scl.lib(566): Ignoring unknown model parameter. This may or may not be a problem.
+ rd = 0 rdc = 0 rs = 0 rsc = 0 
         ^^^^^^^^
C:\Users\madha\Desktop\AIC\Assignment 2\ts18sl_scl.lib(566): Ignoring unknown model parameter. This may or may not be a problem.
+ rd = 0 rdc = 0 rs = 0 rsc = 0 
+ acm = 12 hdif = 0.15e-6 ldif = 0 calcacm = 1 )
                        ^^^^^^^^^^^
C:\Users\madha\Desktop\AIC\Assignment 2\ts18sl_scl.lib(628): Ignoring unknown model parameter. This may or may not be a problem.
+ binflag = 1 lref = 1e14 wref = 1e14 tref = 25 
  ^^^^^^^^^^^^
C:\Users\madha\Desktop\AIC\Assignment 2\ts18sl_scl.lib(628): Ignoring unknown model parameter. This may or may not be a problem.
+ binflag = 1 lref = 1e14 wref = 1e14 tref = 25 
              ^^^^^^^^^^^^
C:\Users\madha\Desktop\AIC\Assignment 2\ts18sl_scl.lib(628): Ignoring unknown model parameter. This may or may not be a problem.
+ binflag = 1 lref = 1e14 wref = 1e14 tref = 25 
                          ^^^^^^^^^^^^
C:\Users\madha\Desktop\AIC\Assignment 2\ts18sl_scl.lib(629): Ignoring unknown model parameter. This may or may not be a problem.
+ xl = 0 xw = 0 lmlt = 1 wmlt = 1 
                ^^^^^^^^^
C:\Users\madha\Desktop\AIC\Assignment 2\ts18sl_scl.lib(629): Ignoring unknown model parameter. This may or may not be a problem.
+ xl = 0 xw = 0 lmlt = 1 wmlt = 1 
+ rd = 0 rdc = 0 rs = 0 rsc = 0 
                         ^^^^^^^^^^^^
C:\Users\madha\Desktop\AIC\Assignment 2\ts18sl_scl.lib(630): Ignoring unknown model parameter. This may or may not be a problem.
+ rd = 0 rdc = 0 rs = 0 rsc = 0 
         ^^^^^^^^
C:\Users\madha\Desktop\AIC\Assignment 2\ts18sl_scl.lib(630): Ignoring unknown model parameter. This may or may not be a problem.
+ rd = 0 rdc = 0 rs = 0 rsc = 0 
+ acm = 12 hdif = 0.15e-6 ldif = 0 calcacm = 1 )
                        ^^^^^^^^^^^
C:\Users\madha\Desktop\AIC\Assignment 2\ts18sl_scl.lib(692): Ignoring unknown model parameter. This may or may not be a problem.
+ binflag = 1 lref = 1e14 wref = 1e14 tref = 25 
  ^^^^^^^^^^^^
C:\Users\madha\Desktop\AIC\Assignment 2\ts18sl_scl.lib(692): Ignoring unknown model parameter. This may or may not be a problem.
+ binflag = 1 lref = 1e14 wref = 1e14 tref = 25 
              ^^^^^^^^^^^^
C:\Users\madha\Desktop\AIC\Assignment 2\ts18sl_scl.lib(692): Ignoring unknown model parameter. This may or may not be a problem.
+ binflag = 1 lref = 1e14 wref = 1e14 tref = 25 
                          ^^^^^^^^^^^^
C:\Users\madha\Desktop\AIC\Assignment 2\ts18sl_scl.lib(693): Ignoring unknown model parameter. This may or may not be a problem.
+ xl = 0 xw = 0 lmlt = 1 wmlt = 1 
                ^^^^^^^^^
C:\Users\madha\Desktop\AIC\Assignment 2\ts18sl_scl.lib(693): Ignoring unknown model parameter. This may or may not be a problem.
+ xl = 0 xw = 0 lmlt = 1 wmlt = 1 
+ rd = 0 rdc = 0 rs = 0 rsc = 0 
                         ^^^^^^^^^^^^
C:\Users\madha\Desktop\AIC\Assignment 2\ts18sl_scl.lib(694): Ignoring unknown model parameter. This may or may not be a problem.
+ rd = 0 rdc = 0 rs = 0 rsc = 0 
         ^^^^^^^^
C:\Users\madha\Desktop\AIC\Assignment 2\ts18sl_scl.lib(694): Ignoring unknown model parameter. This may or may not be a problem.
+ rd = 0 rdc = 0 rs = 0 rsc = 0 
+ acm = 12 hdif = 0.15e-6 ldif = 0 calcacm = 1 )
                        ^^^^^^^^^^^
C:\Users\madha\Desktop\AIC\Assignment 2\ts18sl_scl.lib(756): Ignoring unknown model parameter. This may or may not be a problem.
+ binflag = 1 lref = 1e14 wref = 1e14 tref = 25 
  ^^^^^^^^^^^^
C:\Users\madha\Desktop\AIC\Assignment 2\ts18sl_scl.lib(756): Ignoring unknown model parameter. This may or may not be a problem.
+ binflag = 1 lref = 1e14 wref = 1e14 tref = 25 
              ^^^^^^^^^^^^
C:\Users\madha\Desktop\AIC\Assignment 2\ts18sl_scl.lib(756): Ignoring unknown model parameter. This may or may not be a problem.
+ binflag = 1 lref = 1e14 wref = 1e14 tref = 25 
                          ^^^^^^^^^^^^
C:\Users\madha\Desktop\AIC\Assignment 2\ts18sl_scl.lib(757): Ignoring unknown model parameter. This may or may not be a problem.
+ xl = 0 xw = 0 lmlt = 1 wmlt = 1 
                ^^^^^^^^^
C:\Users\madha\Desktop\AIC\Assignment 2\ts18sl_scl.lib(757): Ignoring unknown model parameter. This may or may not be a problem.
+ xl = 0 xw = 0 lmlt = 1 wmlt = 1 
+ rd = 0 rdc = 0 rs = 0 rsc = 0 
                         ^^^^^^^^^^^^
C:\Users\madha\Desktop\AIC\Assignment 2\ts18sl_scl.lib(758): Ignoring unknown model parameter. This may or may not be a problem.
+ rd = 0 rdc = 0 rs = 0 rsc = 0 
         ^^^^^^^^
C:\Users\madha\Desktop\AIC\Assignment 2\ts18sl_scl.lib(758): Ignoring unknown model parameter. This may or may not be a problem.
+ rd = 0 rdc = 0 rs = 0 rsc = 0 
+ acm = 12 hdif = 0.15e-6 ldif = 0 calcacm = 1 )
                        ^^^^^^^^^^^
C:\Users\madha\Desktop\AIC\Assignment 2\ts18sl_scl.lib(820): Ignoring unknown model parameter. This may or may not be a problem.
+ binflag = 1 lref = 1e14 wref = 1e14 tref = 25 
  ^^^^^^^^^^^^
C:\Users\madha\Desktop\AIC\Assignment 2\ts18sl_scl.lib(820): Ignoring unknown model parameter. This may or may not be a problem.
+ binflag = 1 lref = 1e14 wref = 1e14 tref = 25 
              ^^^^^^^^^^^^
C:\Users\madha\Desktop\AIC\Assignment 2\ts18sl_scl.lib(820): Ignoring unknown model parameter. This may or may not be a problem.
+ binflag = 1 lref = 1e14 wref = 1e14 tref = 25 
                          ^^^^^^^^^^^^
C:\Users\madha\Desktop\AIC\Assignment 2\ts18sl_scl.lib(821): Ignoring unknown model parameter. This may or may not be a problem.
+ xl = 0 xw = 0 lmlt = 1 wmlt = 1 
                ^^^^^^^^^
C:\Users\madha\Desktop\AIC\Assignment 2\ts18sl_scl.lib(821): Ignoring unknown model parameter. This may or may not be a problem.
+ xl = 0 xw = 0 lmlt = 1 wmlt = 1 
+ rd = 0 rdc = 0 rs = 0 rsc = 0 
                         ^^^^^^^^^^^^
C:\Users\madha\Desktop\AIC\Assignment 2\ts18sl_scl.lib(822): Ignoring unknown model parameter. This may or may not be a problem.
+ rd = 0 rdc = 0 rs = 0 rsc = 0 
         ^^^^^^^^
C:\Users\madha\Desktop\AIC\Assignment 2\ts18sl_scl.lib(822): Ignoring unknown model parameter. This may or may not be a problem.
+ rd = 0 rdc = 0 rs = 0 rsc = 0 
+ acm = 12 hdif = 0.15e-6 ldif = 0 calcacm = 1 )
                        ^^^^^^^^^^^
C:\Users\madha\Desktop\AIC\Assignment 2\ts18sl_scl.lib(884): Ignoring unknown model parameter. This may or may not be a problem.
+ binflag = 1 lref = 1e14 wref = 1e14 tref = 25 
  ^^^^^^^^^^^^
C:\Users\madha\Desktop\AIC\Assignment 2\ts18sl_scl.lib(884): Ignoring unknown model parameter. This may or may not be a problem.
+ binflag = 1 lref = 1e14 wref = 1e14 tref = 25 
              ^^^^^^^^^^^^
C:\Users\madha\Desktop\AIC\Assignment 2\ts18sl_scl.lib(884): Ignoring unknown model parameter. This may or may not be a problem.
+ binflag = 1 lref = 1e14 wref = 1e14 tref = 25 
                          ^^^^^^^^^^^^
C:\Users\madha\Desktop\AIC\Assignment 2\ts18sl_scl.lib(885): Ignoring unknown model parameter. This may or may not be a problem.
+ xl = 0 xw = 0 lmlt = 1 wmlt = 1 
                ^^^^^^^^^
C:\Users\madha\Desktop\AIC\Assignment 2\ts18sl_scl.lib(885): Ignoring unknown model parameter. This may or may not be a problem.
+ xl = 0 xw = 0 lmlt = 1 wmlt = 1 
+ rd = 0 rdc = 0 rs = 0 rsc = 0 
                         ^^^^^^^^^^^^
C:\Users\madha\Desktop\AIC\Assignment 2\ts18sl_scl.lib(886): Ignoring unknown model parameter. This may or may not be a problem.
+ rd = 0 rdc = 0 rs = 0 rsc = 0 
         ^^^^^^^^
C:\Users\madha\Desktop\AIC\Assignment 2\ts18sl_scl.lib(886): Ignoring unknown model parameter. This may or may not be a problem.
+ rd = 0 rdc = 0 rs = 0 rsc = 0 
+ acm = 12 hdif = 0.15e-6 ldif = 0 calcacm = 1 )
                        ^^^^^^^^^^^
C:\Users\madha\Desktop\AIC\Assignment 2\ts18sl_scl.lib(948): Ignoring unknown model parameter. This may or may not be a problem.
+ binflag = 1 lref = 1e14 wref = 1e14 tref = 25 
  ^^^^^^^^^^^^
C:\Users\madha\Desktop\AIC\Assignment 2\ts18sl_scl.lib(948): Ignoring unknown model parameter. This may or may not be a problem.
+ binflag = 1 lref = 1e14 wref = 1e14 tref = 25 
              ^^^^^^^^^^^^
C:\Users\madha\Desktop\AIC\Assignment 2\ts18sl_scl.lib(948): Ignoring unknown model parameter. This may or may not be a problem.
+ binflag = 1 lref = 1e14 wref = 1e14 tref = 25 
                          ^^^^^^^^^^^^
C:\Users\madha\Desktop\AIC\Assignment 2\ts18sl_scl.lib(949): Ignoring unknown model parameter. This may or may not be a problem.
+ xl = 0 xw = 0 lmlt = 1 wmlt = 1 
                ^^^^^^^^^
C:\Users\madha\Desktop\AIC\Assignment 2\ts18sl_scl.lib(949): Ignoring unknown model parameter. This may or may not be a problem.
+ xl = 0 xw = 0 lmlt = 1 wmlt = 1 
+ rd = 0 rdc = 0 rs = 0 rsc = 0 
                         ^^^^^^^^^^^^
C:\Users\madha\Desktop\AIC\Assignment 2\ts18sl_scl.lib(950): Ignoring unknown model parameter. This may or may not be a problem.
+ rd = 0 rdc = 0 rs = 0 rsc = 0 
         ^^^^^^^^
C:\Users\madha\Desktop\AIC\Assignment 2\ts18sl_scl.lib(950): Ignoring unknown model parameter. This may or may not be a problem.
+ rd = 0 rdc = 0 rs = 0 rsc = 0 
+ acm = 12 hdif = 0.15e-6 ldif = 0 calcacm = 1 )
                        ^^^^^^^^^^^
C:\Users\madha\Desktop\AIC\Assignment 2\ts18sl_scl.lib(1012): Ignoring unknown model parameter. This may or may not be a problem.
+ binflag = 1 lref = 1e14 wref = 1e14 tref = 25 
  ^^^^^^^^^^^^
C:\Users\madha\Desktop\AIC\Assignment 2\ts18sl_scl.lib(1012): Ignoring unknown model parameter. This may or may not be a problem.
+ binflag = 1 lref = 1e14 wref = 1e14 tref = 25 
              ^^^^^^^^^^^^
C:\Users\madha\Desktop\AIC\Assignment 2\ts18sl_scl.lib(1012): Ignoring unknown model parameter. This may or may not be a problem.
+ binflag = 1 lref = 1e14 wref = 1e14 tref = 25 
                          ^^^^^^^^^^^^
C:\Users\madha\Desktop\AIC\Assignment 2\ts18sl_scl.lib(1013): Ignoring unknown model parameter. This may or may not be a problem.
+ xl = 0 xw = 0 lmlt = 1 wmlt = 1 
                ^^^^^^^^^
C:\Users\madha\Desktop\AIC\Assignment 2\ts18sl_scl.lib(1013): Ignoring unknown model parameter. This may or may not be a problem.
+ xl = 0 xw = 0 lmlt = 1 wmlt = 1 
+ rd = 0 rdc = 0 rs = 0 rsc = 0 
                         ^^^^^^^^^^^^
C:\Users\madha\Desktop\AIC\Assignment 2\ts18sl_scl.lib(1014): Ignoring unknown model parameter. This may or may not be a problem.
+ rd = 0 rdc = 0 rs = 0 rsc = 0 
         ^^^^^^^^
C:\Users\madha\Desktop\AIC\Assignment 2\ts18sl_scl.lib(1014): Ignoring unknown model parameter. This may or may not be a problem.
+ rd = 0 rdc = 0 rs = 0 rsc = 0 
+ acm = 12 hdif = 0.15e-6 ldif = 0 calcacm = 1 )
                        ^^^^^^^^^^^
C:\Users\madha\Desktop\AIC\Assignment 2\ts18sl_scl.lib(1075): Ignoring unknown model parameter. This may or may not be a problem.
+ binflag = 1 lref = 1e14 wref = 1e14 tref = 25 
  ^^^^^^^^^^^^
C:\Users\madha\Desktop\AIC\Assignment 2\ts18sl_scl.lib(1075): Ignoring unknown model parameter. This may or may not be a problem.
+ binflag = 1 lref = 1e14 wref = 1e14 tref = 25 
              ^^^^^^^^^^^^
C:\Users\madha\Desktop\AIC\Assignment 2\ts18sl_scl.lib(1075): Ignoring unknown model parameter. This may or may not be a problem.
+ binflag = 1 lref = 1e14 wref = 1e14 tref = 25 
                          ^^^^^^^^^^^^
C:\Users\madha\Desktop\AIC\Assignment 2\ts18sl_scl.lib(1076): Ignoring unknown model parameter. This may or may not be a problem.
+ xl = 0 xw = 0 lmlt = 1 wmlt = 1 
                ^^^^^^^^^
C:\Users\madha\Desktop\AIC\Assignment 2\ts18sl_scl.lib(1076): Ignoring unknown model parameter. This may or may not be a problem.
+ xl = 0 xw = 0 lmlt = 1 wmlt = 1 
+ rd = 0 rdc = 0 rs = 0 rsc = 0 
                         ^^^^^^^^^^^^
C:\Users\madha\Desktop\AIC\Assignment 2\ts18sl_scl.lib(1077): Ignoring unknown model parameter. This may or may not be a problem.
+ rd = 0 rdc = 0 rs = 0 rsc = 0 
         ^^^^^^^^
C:\Users\madha\Desktop\AIC\Assignment 2\ts18sl_scl.lib(1077): Ignoring unknown model parameter. This may or may not be a problem.
+ rd = 0 rdc = 0 rs = 0 rsc = 0 
+ acm = 12 hdif = 0.15e-6 ldif = 0 calcacm = 1 )
                        ^^^^^^^^^^^
C:\Users\madha\Desktop\AIC\Assignment 2\ts18sl_scl.lib(1138): Ignoring unknown model parameter. This may or may not be a problem.
+ binflag = 1 lref = 1e14 wref = 1e14 tref = 25 
  ^^^^^^^^^^^^
C:\Users\madha\Desktop\AIC\Assignment 2\ts18sl_scl.lib(1138): Ignoring unknown model parameter. This may or may not be a problem.
+ binflag = 1 lref = 1e14 wref = 1e14 tref = 25 
              ^^^^^^^^^^^^
C:\Users\madha\Desktop\AIC\Assignment 2\ts18sl_scl.lib(1138): Ignoring unknown model parameter. This may or may not be a problem.
+ binflag = 1 lref = 1e14 wref = 1e14 tref = 25 
                          ^^^^^^^^^^^^
C:\Users\madha\Desktop\AIC\Assignment 2\ts18sl_scl.lib(1139): Ignoring unknown model parameter. This may or may not be a problem.
+ xl = 0 xw = 0 lmlt = 1 wmlt = 1 
                ^^^^^^^^^
C:\Users\madha\Desktop\AIC\Assignment 2\ts18sl_scl.lib(1139): Ignoring unknown model parameter. This may or may not be a problem.
+ xl = 0 xw = 0 lmlt = 1 wmlt = 1 
+ rd = 0 rdc = 0 rs = 0 rsc = 0 
                         ^^^^^^^^^^^^
C:\Users\madha\Desktop\AIC\Assignment 2\ts18sl_scl.lib(1140): Ignoring unknown model parameter. This may or may not be a problem.
+ rd = 0 rdc = 0 rs = 0 rsc = 0 
         ^^^^^^^^
C:\Users\madha\Desktop\AIC\Assignment 2\ts18sl_scl.lib(1140): Ignoring unknown model parameter. This may or may not be a problem.
+ rd = 0 rdc = 0 rs = 0 rsc = 0 
+ acm = 12 hdif = 0.15e-6 ldif = 0 calcacm = 1 )
                        ^^^^^^^^^^^
C:\Users\madha\Desktop\AIC\Assignment 2\ts18sl_scl.lib(1201): Ignoring unknown model parameter. This may or may not be a problem.
+ binflag = 1 lref = 1e14 wref = 1e14 tref = 25 
  ^^^^^^^^^^^^
C:\Users\madha\Desktop\AIC\Assignment 2\ts18sl_scl.lib(1201): Ignoring unknown model parameter. This may or may not be a problem.
+ binflag = 1 lref = 1e14 wref = 1e14 tref = 25 
              ^^^^^^^^^^^^
C:\Users\madha\Desktop\AIC\Assignment 2\ts18sl_scl.lib(1201): Ignoring unknown model parameter. This may or may not be a problem.
+ binflag = 1 lref = 1e14 wref = 1e14 tref = 25 
                          ^^^^^^^^^^^^
C:\Users\madha\Desktop\AIC\Assignment 2\ts18sl_scl.lib(1202): Ignoring unknown model parameter. This may or may not be a problem.
+ xl = 0 xw = 0 lmlt = 1 wmlt = 1 
                ^^^^^^^^^
C:\Users\madha\Desktop\AIC\Assignment 2\ts18sl_scl.lib(1202): Ignoring unknown model parameter. This may or may not be a problem.
+ xl = 0 xw = 0 lmlt = 1 wmlt = 1 
+ rd = 0 rdc = 0 rs = 0 rsc = 0 
                         ^^^^^^^^^^^^
C:\Users\madha\Desktop\AIC\Assignment 2\ts18sl_scl.lib(1203): Ignoring unknown model parameter. This may or may not be a problem.
+ rd = 0 rdc = 0 rs = 0 rsc = 0 
         ^^^^^^^^
C:\Users\madha\Desktop\AIC\Assignment 2\ts18sl_scl.lib(1203): Ignoring unknown model parameter. This may or may not be a problem.
+ rd = 0 rdc = 0 rs = 0 rsc = 0 
+ acm = 12 hdif = 0.15e-6 ldif = 0 calcacm = 1 )
                        ^^^^^^^^^^^
C:\Users\madha\Desktop\AIC\Assignment 2\ts18sl_scl.lib(1264): Ignoring unknown model parameter. This may or may not be a problem.
+ binflag = 1 lref = 1e14 wref = 1e14 tref = 25 
  ^^^^^^^^^^^^
C:\Users\madha\Desktop\AIC\Assignment 2\ts18sl_scl.lib(1264): Ignoring unknown model parameter. This may or may not be a problem.
+ binflag = 1 lref = 1e14 wref = 1e14 tref = 25 
              ^^^^^^^^^^^^
C:\Users\madha\Desktop\AIC\Assignment 2\ts18sl_scl.lib(1264): Ignoring unknown model parameter. This may or may not be a problem.
+ binflag = 1 lref = 1e14 wref = 1e14 tref = 25 
                          ^^^^^^^^^^^^
C:\Users\madha\Desktop\AIC\Assignment 2\ts18sl_scl.lib(1265): Ignoring unknown model parameter. This may or may not be a problem.
+ xl = 0 xw = 0 lmlt = 1 wmlt = 1 
                ^^^^^^^^^
C:\Users\madha\Desktop\AIC\Assignment 2\ts18sl_scl.lib(1265): Ignoring unknown model parameter. This may or may not be a problem.
+ xl = 0 xw = 0 lmlt = 1 wmlt = 1 
+ rd = 0 rdc = 0 rs = 0 rsc = 0 
                         ^^^^^^^^^^^^
C:\Users\madha\Desktop\AIC\Assignment 2\ts18sl_scl.lib(1266): Ignoring unknown model parameter. This may or may not be a problem.
+ rd = 0 rdc = 0 rs = 0 rsc = 0 
         ^^^^^^^^
C:\Users\madha\Desktop\AIC\Assignment 2\ts18sl_scl.lib(1266): Ignoring unknown model parameter. This may or may not be a problem.
+ rd = 0 rdc = 0 rs = 0 rsc = 0 
+ acm = 12 hdif = 0.15e-6 ldif = 0 calcacm = 1 )
                        ^^^^^^^^^^^
C:\Users\madha\Desktop\AIC\Assignment 2\ts18sl_scl.lib(1327): Ignoring unknown model parameter. This may or may not be a problem.
+ binflag = 1 lref = 1e14 wref = 1e14 tref = 25 
  ^^^^^^^^^^^^
C:\Users\madha\Desktop\AIC\Assignment 2\ts18sl_scl.lib(1327): Ignoring unknown model parameter. This may or may not be a problem.
+ binflag = 1 lref = 1e14 wref = 1e14 tref = 25 
              ^^^^^^^^^^^^
C:\Users\madha\Desktop\AIC\Assignment 2\ts18sl_scl.lib(1327): Ignoring unknown model parameter. This may or may not be a problem.
+ binflag = 1 lref = 1e14 wref = 1e14 tref = 25 
                          ^^^^^^^^^^^^
C:\Users\madha\Desktop\AIC\Assignment 2\ts18sl_scl.lib(1328): Ignoring unknown model parameter. This may or may not be a problem.
+ xl = 0 xw = 0 lmlt = 1 wmlt = 1 
                ^^^^^^^^^
C:\Users\madha\Desktop\AIC\Assignment 2\ts18sl_scl.lib(1328): Ignoring unknown model parameter. This may or may not be a problem.
+ xl = 0 xw = 0 lmlt = 1 wmlt = 1 
+ rd = 0 rdc = 0 rs = 0 rsc = 0 
                         ^^^^^^^^^^^^
C:\Users\madha\Desktop\AIC\Assignment 2\ts18sl_scl.lib(1329): Ignoring unknown model parameter. This may or may not be a problem.
+ rd = 0 rdc = 0 rs = 0 rsc = 0 
         ^^^^^^^^
C:\Users\madha\Desktop\AIC\Assignment 2\ts18sl_scl.lib(1329): Ignoring unknown model parameter. This may or may not be a problem.
+ rd = 0 rdc = 0 rs = 0 rsc = 0 
+ acm = 12 hdif = 0.15e-6 ldif = 0 calcacm = 1 )
                        ^^^^^^^^^^^
C:\Users\madha\Desktop\AIC\Assignment 2\ts18sl_scl.lib(1390): Ignoring unknown model parameter. This may or may not be a problem.
+ binflag = 1 lref = 1e14 wref = 1e14 tref = 25 
  ^^^^^^^^^^^^
C:\Users\madha\Desktop\AIC\Assignment 2\ts18sl_scl.lib(1390): Ignoring unknown model parameter. This may or may not be a problem.
+ binflag = 1 lref = 1e14 wref = 1e14 tref = 25 
              ^^^^^^^^^^^^
C:\Users\madha\Desktop\AIC\Assignment 2\ts18sl_scl.lib(1390): Ignoring unknown model parameter. This may or may not be a problem.
+ binflag = 1 lref = 1e14 wref = 1e14 tref = 25 
                          ^^^^^^^^^^^^
C:\Users\madha\Desktop\AIC\Assignment 2\ts18sl_scl.lib(1391): Ignoring unknown model parameter. This may or may not be a problem.
+ xl = 0 xw = 0 lmlt = 1 wmlt = 1 
                ^^^^^^^^^
C:\Users\madha\Desktop\AIC\Assignment 2\ts18sl_scl.lib(1391): Ignoring unknown model parameter. This may or may not be a problem.
+ xl = 0 xw = 0 lmlt = 1 wmlt = 1 
+ rd = 0 rdc = 0 rs = 0 rsc = 0 
                         ^^^^^^^^^^^^
C:\Users\madha\Desktop\AIC\Assignment 2\ts18sl_scl.lib(1392): Ignoring unknown model parameter. This may or may not be a problem.
+ rd = 0 rdc = 0 rs = 0 rsc = 0 
         ^^^^^^^^
C:\Users\madha\Desktop\AIC\Assignment 2\ts18sl_scl.lib(1392): Ignoring unknown model parameter. This may or may not be a problem.
+ rd = 0 rdc = 0 rs = 0 rsc = 0 
+ acm = 12 hdif = 0.15e-6 ldif = 0 calcacm = 1 )
                        ^^^^^^^^^^^
C:\Users\madha\Desktop\AIC\Assignment 2\ts18sl_scl.lib(1453): Ignoring unknown model parameter. This may or may not be a problem.
+ binflag = 1 lref = 1e14 wref = 1e14 tref = 25 
  ^^^^^^^^^^^^
C:\Users\madha\Desktop\AIC\Assignment 2\ts18sl_scl.lib(1453): Ignoring unknown model parameter. This may or may not be a problem.
+ binflag = 1 lref = 1e14 wref = 1e14 tref = 25 
              ^^^^^^^^^^^^
C:\Users\madha\Desktop\AIC\Assignment 2\ts18sl_scl.lib(1453): Ignoring unknown model parameter. This may or may not be a problem.
+ binflag = 1 lref = 1e14 wref = 1e14 tref = 25 
                          ^^^^^^^^^^^^
C:\Users\madha\Desktop\AIC\Assignment 2\ts18sl_scl.lib(1454): Ignoring unknown model parameter. This may or may not be a problem.
+ xl = 0 xw = 0 lmlt = 1 wmlt = 1 
                ^^^^^^^^^
C:\Users\madha\Desktop\AIC\Assignment 2\ts18sl_scl.lib(1454): Ignoring unknown model parameter. This may or may not be a problem.
+ xl = 0 xw = 0 lmlt = 1 wmlt = 1 
+ rd = 0 rdc = 0 rs = 0 rsc = 0 
                         ^^^^^^^^^^^^
C:\Users\madha\Desktop\AIC\Assignment 2\ts18sl_scl.lib(1455): Ignoring unknown model parameter. This may or may not be a problem.
+ rd = 0 rdc = 0 rs = 0 rsc = 0 
         ^^^^^^^^
C:\Users\madha\Desktop\AIC\Assignment 2\ts18sl_scl.lib(1455): Ignoring unknown model parameter. This may or may not be a problem.
+ rd = 0 rdc = 0 rs = 0 rsc = 0 
+ acm = 12 hdif = 0.15e-6 ldif = 0 calcacm = 1 )
                        ^^^^^^^^^^^
C:\Users\madha\Desktop\AIC\Assignment 2\ts18sl_scl.lib(1516): Ignoring unknown model parameter. This may or may not be a problem.
+ binflag = 1 lref = 1e14 wref = 1e14 tref = 25 
  ^^^^^^^^^^^^
C:\Users\madha\Desktop\AIC\Assignment 2\ts18sl_scl.lib(1516): Ignoring unknown model parameter. This may or may not be a problem.
+ binflag = 1 lref = 1e14 wref = 1e14 tref = 25 
              ^^^^^^^^^^^^
C:\Users\madha\Desktop\AIC\Assignment 2\ts18sl_scl.lib(1516): Ignoring unknown model parameter. This may or may not be a problem.
+ binflag = 1 lref = 1e14 wref = 1e14 tref = 25 
                          ^^^^^^^^^^^^
C:\Users\madha\Desktop\AIC\Assignment 2\ts18sl_scl.lib(1517): Ignoring unknown model parameter. This may or may not be a problem.
+ xl = 0 xw = 0 lmlt = 1 wmlt = 1 
                ^^^^^^^^^
C:\Users\madha\Desktop\AIC\Assignment 2\ts18sl_scl.lib(1517): Ignoring unknown model parameter. This may or may not be a problem.
+ xl = 0 xw = 0 lmlt = 1 wmlt = 1 
+ rd = 0 rdc = 0 rs = 0 rsc = 0 
                         ^^^^^^^^^^^^
C:\Users\madha\Desktop\AIC\Assignment 2\ts18sl_scl.lib(1518): Ignoring unknown model parameter. This may or may not be a problem.
+ rd = 0 rdc = 0 rs = 0 rsc = 0 
         ^^^^^^^^
C:\Users\madha\Desktop\AIC\Assignment 2\ts18sl_scl.lib(1518): Ignoring unknown model parameter. This may or may not be a problem.
+ rd = 0 rdc = 0 rs = 0 rsc = 0 
+ acm = 12 hdif = 0.15e-6 ldif = 0 calcacm = 1 )
                        ^^^^^^^^^^^
.step lambda=1.8e-07
C:\Users\madha\Desktop\AIC\Assignment 2\ts18sl_scl.lib(436): Ignoring unknown model parameter. This may or may not be a problem.
+ binflag = 1 lref = 1e14 wref = 1e14 tref = 25 
  ^^^^^^^^^^^^
C:\Users\madha\Desktop\AIC\Assignment 2\ts18sl_scl.lib(436): Ignoring unknown model parameter. This may or may not be a problem.
+ binflag = 1 lref = 1e14 wref = 1e14 tref = 25 
              ^^^^^^^^^^^^
C:\Users\madha\Desktop\AIC\Assignment 2\ts18sl_scl.lib(436): Ignoring unknown model parameter. This may or may not be a problem.
+ binflag = 1 lref = 1e14 wref = 1e14 tref = 25 
                          ^^^^^^^^^^^^
C:\Users\madha\Desktop\AIC\Assignment 2\ts18sl_scl.lib(437): Ignoring unknown model parameter. This may or may not be a problem.
+ xl = 0 xw = 0 lmlt = 1 wmlt = 1 
                ^^^^^^^^^
C:\Users\madha\Desktop\AIC\Assignment 2\ts18sl_scl.lib(437): Ignoring unknown model parameter. This may or may not be a problem.
+ xl = 0 xw = 0 lmlt = 1 wmlt = 1 
+ rd = 0 rdc = 0 rs = 0 rsc = 0 
                         ^^^^^^^^^^^^
C:\Users\madha\Desktop\AIC\Assignment 2\ts18sl_scl.lib(438): Ignoring unknown model parameter. This may or may not be a problem.
+ rd = 0 rdc = 0 rs = 0 rsc = 0 
         ^^^^^^^^
C:\Users\madha\Desktop\AIC\Assignment 2\ts18sl_scl.lib(438): Ignoring unknown model parameter. This may or may not be a problem.
+ rd = 0 rdc = 0 rs = 0 rsc = 0 
+ acm = 12 hdif = 0.15e-6 ldif = 0 calcacm = 1 )
                        ^^^^^^^^^^^
C:\Users\madha\Desktop\AIC\Assignment 2\ts18sl_scl.lib(500): Ignoring unknown model parameter. This may or may not be a problem.
+ binflag = 1 lref = 1e14 wref = 1e14 tref = 25 
  ^^^^^^^^^^^^
C:\Users\madha\Desktop\AIC\Assignment 2\ts18sl_scl.lib(500): Ignoring unknown model parameter. This may or may not be a problem.
+ binflag = 1 lref = 1e14 wref = 1e14 tref = 25 
              ^^^^^^^^^^^^
C:\Users\madha\Desktop\AIC\Assignment 2\ts18sl_scl.lib(500): Ignoring unknown model parameter. This may or may not be a problem.
+ binflag = 1 lref = 1e14 wref = 1e14 tref = 25 
                          ^^^^^^^^^^^^
C:\Users\madha\Desktop\AIC\Assignment 2\ts18sl_scl.lib(501): Ignoring unknown model parameter. This may or may not be a problem.
+ xl = 0 xw = 0 lmlt = 1 wmlt = 1 
                ^^^^^^^^^
C:\Users\madha\Desktop\AIC\Assignment 2\ts18sl_scl.lib(501): Ignoring unknown model parameter. This may or may not be a problem.
+ xl = 0 xw = 0 lmlt = 1 wmlt = 1 
+ rd = 0 rdc = 0 rs = 0 rsc = 0 
                         ^^^^^^^^^^^^
C:\Users\madha\Desktop\AIC\Assignment 2\ts18sl_scl.lib(502): Ignoring unknown model parameter. This may or may not be a problem.
+ rd = 0 rdc = 0 rs = 0 rsc = 0 
         ^^^^^^^^
C:\Users\madha\Desktop\AIC\Assignment 2\ts18sl_scl.lib(502): Ignoring unknown model parameter. This may or may not be a problem.
+ rd = 0 rdc = 0 rs = 0 rsc = 0 
+ acm = 12 hdif = 0.15e-6 ldif = 0 calcacm = 1 )
                        ^^^^^^^^^^^
C:\Users\madha\Desktop\AIC\Assignment 2\ts18sl_scl.lib(564): Ignoring unknown model parameter. This may or may not be a problem.
+ binflag = 1 lref = 1e14 wref = 1e14 tref = 25 
  ^^^^^^^^^^^^
C:\Users\madha\Desktop\AIC\Assignment 2\ts18sl_scl.lib(564): Ignoring unknown model parameter. This may or may not be a problem.
+ binflag = 1 lref = 1e14 wref = 1e14 tref = 25 
              ^^^^^^^^^^^^
C:\Users\madha\Desktop\AIC\Assignment 2\ts18sl_scl.lib(564): Ignoring unknown model parameter. This may or may not be a problem.
+ binflag = 1 lref = 1e14 wref = 1e14 tref = 25 
                          ^^^^^^^^^^^^
C:\Users\madha\Desktop\AIC\Assignment 2\ts18sl_scl.lib(565): Ignoring unknown model parameter. This may or may not be a problem.
+ xl = 0 xw = 0 lmlt = 1 wmlt = 1 
                ^^^^^^^^^
C:\Users\madha\Desktop\AIC\Assignment 2\ts18sl_scl.lib(565): Ignoring unknown model parameter. This may or may not be a problem.
+ xl = 0 xw = 0 lmlt = 1 wmlt = 1 
+ rd = 0 rdc = 0 rs = 0 rsc = 0 
                         ^^^^^^^^^^^^
C:\Users\madha\Desktop\AIC\Assignment 2\ts18sl_scl.lib(566): Ignoring unknown model parameter. This may or may not be a problem.
+ rd = 0 rdc = 0 rs = 0 rsc = 0 
         ^^^^^^^^
C:\Users\madha\Desktop\AIC\Assignment 2\ts18sl_scl.lib(566): Ignoring unknown model parameter. This may or may not be a problem.
+ rd = 0 rdc = 0 rs = 0 rsc = 0 
+ acm = 12 hdif = 0.15e-6 ldif = 0 calcacm = 1 )
                        ^^^^^^^^^^^
C:\Users\madha\Desktop\AIC\Assignment 2\ts18sl_scl.lib(628): Ignoring unknown model parameter. This may or may not be a problem.
+ binflag = 1 lref = 1e14 wref = 1e14 tref = 25 
  ^^^^^^^^^^^^
C:\Users\madha\Desktop\AIC\Assignment 2\ts18sl_scl.lib(628): Ignoring unknown model parameter. This may or may not be a problem.
+ binflag = 1 lref = 1e14 wref = 1e14 tref = 25 
              ^^^^^^^^^^^^
C:\Users\madha\Desktop\AIC\Assignment 2\ts18sl_scl.lib(628): Ignoring unknown model parameter. This may or may not be a problem.
+ binflag = 1 lref = 1e14 wref = 1e14 tref = 25 
                          ^^^^^^^^^^^^
C:\Users\madha\Desktop\AIC\Assignment 2\ts18sl_scl.lib(629): Ignoring unknown model parameter. This may or may not be a problem.
+ xl = 0 xw = 0 lmlt = 1 wmlt = 1 
                ^^^^^^^^^
C:\Users\madha\Desktop\AIC\Assignment 2\ts18sl_scl.lib(629): Ignoring unknown model parameter. This may or may not be a problem.
+ xl = 0 xw = 0 lmlt = 1 wmlt = 1 
+ rd = 0 rdc = 0 rs = 0 rsc = 0 
                         ^^^^^^^^^^^^
C:\Users\madha\Desktop\AIC\Assignment 2\ts18sl_scl.lib(630): Ignoring unknown model parameter. This may or may not be a problem.
+ rd = 0 rdc = 0 rs = 0 rsc = 0 
         ^^^^^^^^
C:\Users\madha\Desktop\AIC\Assignment 2\ts18sl_scl.lib(630): Ignoring unknown model parameter. This may or may not be a problem.
+ rd = 0 rdc = 0 rs = 0 rsc = 0 
+ acm = 12 hdif = 0.15e-6 ldif = 0 calcacm = 1 )
                        ^^^^^^^^^^^
C:\Users\madha\Desktop\AIC\Assignment 2\ts18sl_scl.lib(692): Ignoring unknown model parameter. This may or may not be a problem.
+ binflag = 1 lref = 1e14 wref = 1e14 tref = 25 
  ^^^^^^^^^^^^
C:\Users\madha\Desktop\AIC\Assignment 2\ts18sl_scl.lib(692): Ignoring unknown model parameter. This may or may not be a problem.
+ binflag = 1 lref = 1e14 wref = 1e14 tref = 25 
              ^^^^^^^^^^^^
C:\Users\madha\Desktop\AIC\Assignment 2\ts18sl_scl.lib(692): Ignoring unknown model parameter. This may or may not be a problem.
+ binflag = 1 lref = 1e14 wref = 1e14 tref = 25 
                          ^^^^^^^^^^^^
C:\Users\madha\Desktop\AIC\Assignment 2\ts18sl_scl.lib(693): Ignoring unknown model parameter. This may or may not be a problem.
+ xl = 0 xw = 0 lmlt = 1 wmlt = 1 
                ^^^^^^^^^
C:\Users\madha\Desktop\AIC\Assignment 2\ts18sl_scl.lib(693): Ignoring unknown model parameter. This may or may not be a problem.
+ xl = 0 xw = 0 lmlt = 1 wmlt = 1 
+ rd = 0 rdc = 0 rs = 0 rsc = 0 
                         ^^^^^^^^^^^^
C:\Users\madha\Desktop\AIC\Assignment 2\ts18sl_scl.lib(694): Ignoring unknown model parameter. This may or may not be a problem.
+ rd = 0 rdc = 0 rs = 0 rsc = 0 
         ^^^^^^^^
C:\Users\madha\Desktop\AIC\Assignment 2\ts18sl_scl.lib(694): Ignoring unknown model parameter. This may or may not be a problem.
+ rd = 0 rdc = 0 rs = 0 rsc = 0 
+ acm = 12 hdif = 0.15e-6 ldif = 0 calcacm = 1 )
                        ^^^^^^^^^^^
C:\Users\madha\Desktop\AIC\Assignment 2\ts18sl_scl.lib(756): Ignoring unknown model parameter. This may or may not be a problem.
+ binflag = 1 lref = 1e14 wref = 1e14 tref = 25 
  ^^^^^^^^^^^^
C:\Users\madha\Desktop\AIC\Assignment 2\ts18sl_scl.lib(756): Ignoring unknown model parameter. This may or may not be a problem.
+ binflag = 1 lref = 1e14 wref = 1e14 tref = 25 
              ^^^^^^^^^^^^
C:\Users\madha\Desktop\AIC\Assignment 2\ts18sl_scl.lib(756): Ignoring unknown model parameter. This may or may not be a problem.
+ binflag = 1 lref = 1e14 wref = 1e14 tref = 25 
                          ^^^^^^^^^^^^
C:\Users\madha\Desktop\AIC\Assignment 2\ts18sl_scl.lib(757): Ignoring unknown model parameter. This may or may not be a problem.
+ xl = 0 xw = 0 lmlt = 1 wmlt = 1 
                ^^^^^^^^^
C:\Users\madha\Desktop\AIC\Assignment 2\ts18sl_scl.lib(757): Ignoring unknown model parameter. This may or may not be a problem.
+ xl = 0 xw = 0 lmlt = 1 wmlt = 1 
+ rd = 0 rdc = 0 rs = 0 rsc = 0 
                         ^^^^^^^^^^^^
C:\Users\madha\Desktop\AIC\Assignment 2\ts18sl_scl.lib(758): Ignoring unknown model parameter. This may or may not be a problem.
+ rd = 0 rdc = 0 rs = 0 rsc = 0 
         ^^^^^^^^
C:\Users\madha\Desktop\AIC\Assignment 2\ts18sl_scl.lib(758): Ignoring unknown model parameter. This may or may not be a problem.
+ rd = 0 rdc = 0 rs = 0 rsc = 0 
+ acm = 12 hdif = 0.15e-6 ldif = 0 calcacm = 1 )
                        ^^^^^^^^^^^
C:\Users\madha\Desktop\AIC\Assignment 2\ts18sl_scl.lib(820): Ignoring unknown model parameter. This may or may not be a problem.
+ binflag = 1 lref = 1e14 wref = 1e14 tref = 25 
  ^^^^^^^^^^^^
C:\Users\madha\Desktop\AIC\Assignment 2\ts18sl_scl.lib(820): Ignoring unknown model parameter. This may or may not be a problem.
+ binflag = 1 lref = 1e14 wref = 1e14 tref = 25 
              ^^^^^^^^^^^^
C:\Users\madha\Desktop\AIC\Assignment 2\ts18sl_scl.lib(820): Ignoring unknown model parameter. This may or may not be a problem.
+ binflag = 1 lref = 1e14 wref = 1e14 tref = 25 
                          ^^^^^^^^^^^^
C:\Users\madha\Desktop\AIC\Assignment 2\ts18sl_scl.lib(821): Ignoring unknown model parameter. This may or may not be a problem.
+ xl = 0 xw = 0 lmlt = 1 wmlt = 1 
                ^^^^^^^^^
C:\Users\madha\Desktop\AIC\Assignment 2\ts18sl_scl.lib(821): Ignoring unknown model parameter. This may or may not be a problem.
+ xl = 0 xw = 0 lmlt = 1 wmlt = 1 
+ rd = 0 rdc = 0 rs = 0 rsc = 0 
                         ^^^^^^^^^^^^
C:\Users\madha\Desktop\AIC\Assignment 2\ts18sl_scl.lib(822): Ignoring unknown model parameter. This may or may not be a problem.
+ rd = 0 rdc = 0 rs = 0 rsc = 0 
         ^^^^^^^^
C:\Users\madha\Desktop\AIC\Assignment 2\ts18sl_scl.lib(822): Ignoring unknown model parameter. This may or may not be a problem.
+ rd = 0 rdc = 0 rs = 0 rsc = 0 
+ acm = 12 hdif = 0.15e-6 ldif = 0 calcacm = 1 )
                        ^^^^^^^^^^^
C:\Users\madha\Desktop\AIC\Assignment 2\ts18sl_scl.lib(884): Ignoring unknown model parameter. This may or may not be a problem.
+ binflag = 1 lref = 1e14 wref = 1e14 tref = 25 
  ^^^^^^^^^^^^
C:\Users\madha\Desktop\AIC\Assignment 2\ts18sl_scl.lib(884): Ignoring unknown model parameter. This may or may not be a problem.
+ binflag = 1 lref = 1e14 wref = 1e14 tref = 25 
              ^^^^^^^^^^^^
C:\Users\madha\Desktop\AIC\Assignment 2\ts18sl_scl.lib(884): Ignoring unknown model parameter. This may or may not be a problem.
+ binflag = 1 lref = 1e14 wref = 1e14 tref = 25 
                          ^^^^^^^^^^^^
C:\Users\madha\Desktop\AIC\Assignment 2\ts18sl_scl.lib(885): Ignoring unknown model parameter. This may or may not be a problem.
+ xl = 0 xw = 0 lmlt = 1 wmlt = 1 
                ^^^^^^^^^
C:\Users\madha\Desktop\AIC\Assignment 2\ts18sl_scl.lib(885): Ignoring unknown model parameter. This may or may not be a problem.
+ xl = 0 xw = 0 lmlt = 1 wmlt = 1 
+ rd = 0 rdc = 0 rs = 0 rsc = 0 
                         ^^^^^^^^^^^^
C:\Users\madha\Desktop\AIC\Assignment 2\ts18sl_scl.lib(886): Ignoring unknown model parameter. This may or may not be a problem.
+ rd = 0 rdc = 0 rs = 0 rsc = 0 
         ^^^^^^^^
C:\Users\madha\Desktop\AIC\Assignment 2\ts18sl_scl.lib(886): Ignoring unknown model parameter. This may or may not be a problem.
+ rd = 0 rdc = 0 rs = 0 rsc = 0 
+ acm = 12 hdif = 0.15e-6 ldif = 0 calcacm = 1 )
                        ^^^^^^^^^^^
C:\Users\madha\Desktop\AIC\Assignment 2\ts18sl_scl.lib(948): Ignoring unknown model parameter. This may or may not be a problem.
+ binflag = 1 lref = 1e14 wref = 1e14 tref = 25 
  ^^^^^^^^^^^^
C:\Users\madha\Desktop\AIC\Assignment 2\ts18sl_scl.lib(948): Ignoring unknown model parameter. This may or may not be a problem.
+ binflag = 1 lref = 1e14 wref = 1e14 tref = 25 
              ^^^^^^^^^^^^
C:\Users\madha\Desktop\AIC\Assignment 2\ts18sl_scl.lib(948): Ignoring unknown model parameter. This may or may not be a problem.
+ binflag = 1 lref = 1e14 wref = 1e14 tref = 25 
                          ^^^^^^^^^^^^
C:\Users\madha\Desktop\AIC\Assignment 2\ts18sl_scl.lib(949): Ignoring unknown model parameter. This may or may not be a problem.
+ xl = 0 xw = 0 lmlt = 1 wmlt = 1 
                ^^^^^^^^^
C:\Users\madha\Desktop\AIC\Assignment 2\ts18sl_scl.lib(949): Ignoring unknown model parameter. This may or may not be a problem.
+ xl = 0 xw = 0 lmlt = 1 wmlt = 1 
+ rd = 0 rdc = 0 rs = 0 rsc = 0 
                         ^^^^^^^^^^^^
C:\Users\madha\Desktop\AIC\Assignment 2\ts18sl_scl.lib(950): Ignoring unknown model parameter. This may or may not be a problem.
+ rd = 0 rdc = 0 rs = 0 rsc = 0 
         ^^^^^^^^
C:\Users\madha\Desktop\AIC\Assignment 2\ts18sl_scl.lib(950): Ignoring unknown model parameter. This may or may not be a problem.
+ rd = 0 rdc = 0 rs = 0 rsc = 0 
+ acm = 12 hdif = 0.15e-6 ldif = 0 calcacm = 1 )
                        ^^^^^^^^^^^
C:\Users\madha\Desktop\AIC\Assignment 2\ts18sl_scl.lib(1012): Ignoring unknown model parameter. This may or may not be a problem.
+ binflag = 1 lref = 1e14 wref = 1e14 tref = 25 
  ^^^^^^^^^^^^
C:\Users\madha\Desktop\AIC\Assignment 2\ts18sl_scl.lib(1012): Ignoring unknown model parameter. This may or may not be a problem.
+ binflag = 1 lref = 1e14 wref = 1e14 tref = 25 
              ^^^^^^^^^^^^
C:\Users\madha\Desktop\AIC\Assignment 2\ts18sl_scl.lib(1012): Ignoring unknown model parameter. This may or may not be a problem.
+ binflag = 1 lref = 1e14 wref = 1e14 tref = 25 
                          ^^^^^^^^^^^^
C:\Users\madha\Desktop\AIC\Assignment 2\ts18sl_scl.lib(1013): Ignoring unknown model parameter. This may or may not be a problem.
+ xl = 0 xw = 0 lmlt = 1 wmlt = 1 
                ^^^^^^^^^
C:\Users\madha\Desktop\AIC\Assignment 2\ts18sl_scl.lib(1013): Ignoring unknown model parameter. This may or may not be a problem.
+ xl = 0 xw = 0 lmlt = 1 wmlt = 1 
+ rd = 0 rdc = 0 rs = 0 rsc = 0 
                         ^^^^^^^^^^^^
C:\Users\madha\Desktop\AIC\Assignment 2\ts18sl_scl.lib(1014): Ignoring unknown model parameter. This may or may not be a problem.
+ rd = 0 rdc = 0 rs = 0 rsc = 0 
         ^^^^^^^^
C:\Users\madha\Desktop\AIC\Assignment 2\ts18sl_scl.lib(1014): Ignoring unknown model parameter. This may or may not be a problem.
+ rd = 0 rdc = 0 rs = 0 rsc = 0 
+ acm = 12 hdif = 0.15e-6 ldif = 0 calcacm = 1 )
                        ^^^^^^^^^^^
C:\Users\madha\Desktop\AIC\Assignment 2\ts18sl_scl.lib(1075): Ignoring unknown model parameter. This may or may not be a problem.
+ binflag = 1 lref = 1e14 wref = 1e14 tref = 25 
  ^^^^^^^^^^^^
C:\Users\madha\Desktop\AIC\Assignment 2\ts18sl_scl.lib(1075): Ignoring unknown model parameter. This may or may not be a problem.
+ binflag = 1 lref = 1e14 wref = 1e14 tref = 25 
              ^^^^^^^^^^^^
C:\Users\madha\Desktop\AIC\Assignment 2\ts18sl_scl.lib(1075): Ignoring unknown model parameter. This may or may not be a problem.
+ binflag = 1 lref = 1e14 wref = 1e14 tref = 25 
                          ^^^^^^^^^^^^
C:\Users\madha\Desktop\AIC\Assignment 2\ts18sl_scl.lib(1076): Ignoring unknown model parameter. This may or may not be a problem.
+ xl = 0 xw = 0 lmlt = 1 wmlt = 1 
                ^^^^^^^^^
C:\Users\madha\Desktop\AIC\Assignment 2\ts18sl_scl.lib(1076): Ignoring unknown model parameter. This may or may not be a problem.
+ xl = 0 xw = 0 lmlt = 1 wmlt = 1 
+ rd = 0 rdc = 0 rs = 0 rsc = 0 
                         ^^^^^^^^^^^^
C:\Users\madha\Desktop\AIC\Assignment 2\ts18sl_scl.lib(1077): Ignoring unknown model parameter. This may or may not be a problem.
+ rd = 0 rdc = 0 rs = 0 rsc = 0 
         ^^^^^^^^
C:\Users\madha\Desktop\AIC\Assignment 2\ts18sl_scl.lib(1077): Ignoring unknown model parameter. This may or may not be a problem.
+ rd = 0 rdc = 0 rs = 0 rsc = 0 
+ acm = 12 hdif = 0.15e-6 ldif = 0 calcacm = 1 )
                        ^^^^^^^^^^^
C:\Users\madha\Desktop\AIC\Assignment 2\ts18sl_scl.lib(1138): Ignoring unknown model parameter. This may or may not be a problem.
+ binflag = 1 lref = 1e14 wref = 1e14 tref = 25 
  ^^^^^^^^^^^^
C:\Users\madha\Desktop\AIC\Assignment 2\ts18sl_scl.lib(1138): Ignoring unknown model parameter. This may or may not be a problem.
+ binflag = 1 lref = 1e14 wref = 1e14 tref = 25 
              ^^^^^^^^^^^^
C:\Users\madha\Desktop\AIC\Assignment 2\ts18sl_scl.lib(1138): Ignoring unknown model parameter. This may or may not be a problem.
+ binflag = 1 lref = 1e14 wref = 1e14 tref = 25 
                          ^^^^^^^^^^^^
C:\Users\madha\Desktop\AIC\Assignment 2\ts18sl_scl.lib(1139): Ignoring unknown model parameter. This may or may not be a problem.
+ xl = 0 xw = 0 lmlt = 1 wmlt = 1 
                ^^^^^^^^^
C:\Users\madha\Desktop\AIC\Assignment 2\ts18sl_scl.lib(1139): Ignoring unknown model parameter. This may or may not be a problem.
+ xl = 0 xw = 0 lmlt = 1 wmlt = 1 
+ rd = 0 rdc = 0 rs = 0 rsc = 0 
                         ^^^^^^^^^^^^
C:\Users\madha\Desktop\AIC\Assignment 2\ts18sl_scl.lib(1140): Ignoring unknown model parameter. This may or may not be a problem.
+ rd = 0 rdc = 0 rs = 0 rsc = 0 
         ^^^^^^^^
C:\Users\madha\Desktop\AIC\Assignment 2\ts18sl_scl.lib(1140): Ignoring unknown model parameter. This may or may not be a problem.
+ rd = 0 rdc = 0 rs = 0 rsc = 0 
+ acm = 12 hdif = 0.15e-6 ldif = 0 calcacm = 1 )
                        ^^^^^^^^^^^
C:\Users\madha\Desktop\AIC\Assignment 2\ts18sl_scl.lib(1201): Ignoring unknown model parameter. This may or may not be a problem.
+ binflag = 1 lref = 1e14 wref = 1e14 tref = 25 
  ^^^^^^^^^^^^
C:\Users\madha\Desktop\AIC\Assignment 2\ts18sl_scl.lib(1201): Ignoring unknown model parameter. This may or may not be a problem.
+ binflag = 1 lref = 1e14 wref = 1e14 tref = 25 
              ^^^^^^^^^^^^
C:\Users\madha\Desktop\AIC\Assignment 2\ts18sl_scl.lib(1201): Ignoring unknown model parameter. This may or may not be a problem.
+ binflag = 1 lref = 1e14 wref = 1e14 tref = 25 
                          ^^^^^^^^^^^^
C:\Users\madha\Desktop\AIC\Assignment 2\ts18sl_scl.lib(1202): Ignoring unknown model parameter. This may or may not be a problem.
+ xl = 0 xw = 0 lmlt = 1 wmlt = 1 
                ^^^^^^^^^
C:\Users\madha\Desktop\AIC\Assignment 2\ts18sl_scl.lib(1202): Ignoring unknown model parameter. This may or may not be a problem.
+ xl = 0 xw = 0 lmlt = 1 wmlt = 1 
+ rd = 0 rdc = 0 rs = 0 rsc = 0 
                         ^^^^^^^^^^^^
C:\Users\madha\Desktop\AIC\Assignment 2\ts18sl_scl.lib(1203): Ignoring unknown model parameter. This may or may not be a problem.
+ rd = 0 rdc = 0 rs = 0 rsc = 0 
         ^^^^^^^^
C:\Users\madha\Desktop\AIC\Assignment 2\ts18sl_scl.lib(1203): Ignoring unknown model parameter. This may or may not be a problem.
+ rd = 0 rdc = 0 rs = 0 rsc = 0 
+ acm = 12 hdif = 0.15e-6 ldif = 0 calcacm = 1 )
                        ^^^^^^^^^^^
C:\Users\madha\Desktop\AIC\Assignment 2\ts18sl_scl.lib(1264): Ignoring unknown model parameter. This may or may not be a problem.
+ binflag = 1 lref = 1e14 wref = 1e14 tref = 25 
  ^^^^^^^^^^^^
C:\Users\madha\Desktop\AIC\Assignment 2\ts18sl_scl.lib(1264): Ignoring unknown model parameter. This may or may not be a problem.
+ binflag = 1 lref = 1e14 wref = 1e14 tref = 25 
              ^^^^^^^^^^^^
C:\Users\madha\Desktop\AIC\Assignment 2\ts18sl_scl.lib(1264): Ignoring unknown model parameter. This may or may not be a problem.
+ binflag = 1 lref = 1e14 wref = 1e14 tref = 25 
                          ^^^^^^^^^^^^
C:\Users\madha\Desktop\AIC\Assignment 2\ts18sl_scl.lib(1265): Ignoring unknown model parameter. This may or may not be a problem.
+ xl = 0 xw = 0 lmlt = 1 wmlt = 1 
                ^^^^^^^^^
C:\Users\madha\Desktop\AIC\Assignment 2\ts18sl_scl.lib(1265): Ignoring unknown model parameter. This may or may not be a problem.
+ xl = 0 xw = 0 lmlt = 1 wmlt = 1 
+ rd = 0 rdc = 0 rs = 0 rsc = 0 
                         ^^^^^^^^^^^^
C:\Users\madha\Desktop\AIC\Assignment 2\ts18sl_scl.lib(1266): Ignoring unknown model parameter. This may or may not be a problem.
+ rd = 0 rdc = 0 rs = 0 rsc = 0 
         ^^^^^^^^
C:\Users\madha\Desktop\AIC\Assignment 2\ts18sl_scl.lib(1266): Ignoring unknown model parameter. This may or may not be a problem.
+ rd = 0 rdc = 0 rs = 0 rsc = 0 
+ acm = 12 hdif = 0.15e-6 ldif = 0 calcacm = 1 )
                        ^^^^^^^^^^^
C:\Users\madha\Desktop\AIC\Assignment 2\ts18sl_scl.lib(1327): Ignoring unknown model parameter. This may or may not be a problem.
+ binflag = 1 lref = 1e14 wref = 1e14 tref = 25 
  ^^^^^^^^^^^^
C:\Users\madha\Desktop\AIC\Assignment 2\ts18sl_scl.lib(1327): Ignoring unknown model parameter. This may or may not be a problem.
+ binflag = 1 lref = 1e14 wref = 1e14 tref = 25 
              ^^^^^^^^^^^^
C:\Users\madha\Desktop\AIC\Assignment 2\ts18sl_scl.lib(1327): Ignoring unknown model parameter. This may or may not be a problem.
+ binflag = 1 lref = 1e14 wref = 1e14 tref = 25 
                          ^^^^^^^^^^^^
C:\Users\madha\Desktop\AIC\Assignment 2\ts18sl_scl.lib(1328): Ignoring unknown model parameter. This may or may not be a problem.
+ xl = 0 xw = 0 lmlt = 1 wmlt = 1 
                ^^^^^^^^^
C:\Users\madha\Desktop\AIC\Assignment 2\ts18sl_scl.lib(1328): Ignoring unknown model parameter. This may or may not be a problem.
+ xl = 0 xw = 0 lmlt = 1 wmlt = 1 
+ rd = 0 rdc = 0 rs = 0 rsc = 0 
                         ^^^^^^^^^^^^
C:\Users\madha\Desktop\AIC\Assignment 2\ts18sl_scl.lib(1329): Ignoring unknown model parameter. This may or may not be a problem.
+ rd = 0 rdc = 0 rs = 0 rsc = 0 
         ^^^^^^^^
C:\Users\madha\Desktop\AIC\Assignment 2\ts18sl_scl.lib(1329): Ignoring unknown model parameter. This may or may not be a problem.
+ rd = 0 rdc = 0 rs = 0 rsc = 0 
+ acm = 12 hdif = 0.15e-6 ldif = 0 calcacm = 1 )
                        ^^^^^^^^^^^
C:\Users\madha\Desktop\AIC\Assignment 2\ts18sl_scl.lib(1390): Ignoring unknown model parameter. This may or may not be a problem.
+ binflag = 1 lref = 1e14 wref = 1e14 tref = 25 
  ^^^^^^^^^^^^
C:\Users\madha\Desktop\AIC\Assignment 2\ts18sl_scl.lib(1390): Ignoring unknown model parameter. This may or may not be a problem.
+ binflag = 1 lref = 1e14 wref = 1e14 tref = 25 
              ^^^^^^^^^^^^
C:\Users\madha\Desktop\AIC\Assignment 2\ts18sl_scl.lib(1390): Ignoring unknown model parameter. This may or may not be a problem.
+ binflag = 1 lref = 1e14 wref = 1e14 tref = 25 
                          ^^^^^^^^^^^^
C:\Users\madha\Desktop\AIC\Assignment 2\ts18sl_scl.lib(1391): Ignoring unknown model parameter. This may or may not be a problem.
+ xl = 0 xw = 0 lmlt = 1 wmlt = 1 
                ^^^^^^^^^
C:\Users\madha\Desktop\AIC\Assignment 2\ts18sl_scl.lib(1391): Ignoring unknown model parameter. This may or may not be a problem.
+ xl = 0 xw = 0 lmlt = 1 wmlt = 1 
+ rd = 0 rdc = 0 rs = 0 rsc = 0 
                         ^^^^^^^^^^^^
C:\Users\madha\Desktop\AIC\Assignment 2\ts18sl_scl.lib(1392): Ignoring unknown model parameter. This may or may not be a problem.
+ rd = 0 rdc = 0 rs = 0 rsc = 0 
         ^^^^^^^^
C:\Users\madha\Desktop\AIC\Assignment 2\ts18sl_scl.lib(1392): Ignoring unknown model parameter. This may or may not be a problem.
+ rd = 0 rdc = 0 rs = 0 rsc = 0 
+ acm = 12 hdif = 0.15e-6 ldif = 0 calcacm = 1 )
                        ^^^^^^^^^^^
C:\Users\madha\Desktop\AIC\Assignment 2\ts18sl_scl.lib(1453): Ignoring unknown model parameter. This may or may not be a problem.
+ binflag = 1 lref = 1e14 wref = 1e14 tref = 25 
  ^^^^^^^^^^^^
C:\Users\madha\Desktop\AIC\Assignment 2\ts18sl_scl.lib(1453): Ignoring unknown model parameter. This may or may not be a problem.
+ binflag = 1 lref = 1e14 wref = 1e14 tref = 25 
              ^^^^^^^^^^^^
C:\Users\madha\Desktop\AIC\Assignment 2\ts18sl_scl.lib(1453): Ignoring unknown model parameter. This may or may not be a problem.
+ binflag = 1 lref = 1e14 wref = 1e14 tref = 25 
                          ^^^^^^^^^^^^
C:\Users\madha\Desktop\AIC\Assignment 2\ts18sl_scl.lib(1454): Ignoring unknown model parameter. This may or may not be a problem.
+ xl = 0 xw = 0 lmlt = 1 wmlt = 1 
                ^^^^^^^^^
C:\Users\madha\Desktop\AIC\Assignment 2\ts18sl_scl.lib(1454): Ignoring unknown model parameter. This may or may not be a problem.
+ xl = 0 xw = 0 lmlt = 1 wmlt = 1 
+ rd = 0 rdc = 0 rs = 0 rsc = 0 
                         ^^^^^^^^^^^^
C:\Users\madha\Desktop\AIC\Assignment 2\ts18sl_scl.lib(1455): Ignoring unknown model parameter. This may or may not be a problem.
+ rd = 0 rdc = 0 rs = 0 rsc = 0 
         ^^^^^^^^
C:\Users\madha\Desktop\AIC\Assignment 2\ts18sl_scl.lib(1455): Ignoring unknown model parameter. This may or may not be a problem.
+ rd = 0 rdc = 0 rs = 0 rsc = 0 
+ acm = 12 hdif = 0.15e-6 ldif = 0 calcacm = 1 )
                        ^^^^^^^^^^^
C:\Users\madha\Desktop\AIC\Assignment 2\ts18sl_scl.lib(1516): Ignoring unknown model parameter. This may or may not be a problem.
+ binflag = 1 lref = 1e14 wref = 1e14 tref = 25 
  ^^^^^^^^^^^^
C:\Users\madha\Desktop\AIC\Assignment 2\ts18sl_scl.lib(1516): Ignoring unknown model parameter. This may or may not be a problem.
+ binflag = 1 lref = 1e14 wref = 1e14 tref = 25 
              ^^^^^^^^^^^^
C:\Users\madha\Desktop\AIC\Assignment 2\ts18sl_scl.lib(1516): Ignoring unknown model parameter. This may or may not be a problem.
+ binflag = 1 lref = 1e14 wref = 1e14 tref = 25 
                          ^^^^^^^^^^^^
C:\Users\madha\Desktop\AIC\Assignment 2\ts18sl_scl.lib(1517): Ignoring unknown model parameter. This may or may not be a problem.
+ xl = 0 xw = 0 lmlt = 1 wmlt = 1 
                ^^^^^^^^^
C:\Users\madha\Desktop\AIC\Assignment 2\ts18sl_scl.lib(1517): Ignoring unknown model parameter. This may or may not be a problem.
+ xl = 0 xw = 0 lmlt = 1 wmlt = 1 
+ rd = 0 rdc = 0 rs = 0 rsc = 0 
                         ^^^^^^^^^^^^
C:\Users\madha\Desktop\AIC\Assignment 2\ts18sl_scl.lib(1518): Ignoring unknown model parameter. This may or may not be a problem.
+ rd = 0 rdc = 0 rs = 0 rsc = 0 
         ^^^^^^^^
C:\Users\madha\Desktop\AIC\Assignment 2\ts18sl_scl.lib(1518): Ignoring unknown model parameter. This may or may not be a problem.
+ rd = 0 rdc = 0 rs = 0 rsc = 0 
+ acm = 12 hdif = 0.15e-6 ldif = 0 calcacm = 1 )
                        ^^^^^^^^^^^
.step lambda=2.7e-07
C:\Users\madha\Desktop\AIC\Assignment 2\ts18sl_scl.lib(436): Ignoring unknown model parameter. This may or may not be a problem.
[...]
+ xl = 0 xw = 0 lmlt = 1 wmlt = 1 
+ rd = 0 rdc = 0 rs = 0 rsc = 0 
                         ^^^^^^^^^^^^
C:\Users\madha\Desktop\AIC\Assignment 2\ts18sl_scl.lib(694): Ignoring unknown model parameter. This may or may not be a problem.
+ rd = 0 rdc = 0 rs = 0 rsc = 0 
         ^^^^^^^^
C:\Users\madha\Desktop\AIC\Assignment 2\ts18sl_scl.lib(694): Ignoring unknown model parameter. This may or may not be a problem.
+ rd = 0 rdc = 0 rs = 0 rsc = 0 
+ acm = 12 hdif = 0.15e-6 ldif = 0 calcacm = 1 )
                        ^^^^^^^^^^^
C:\Users\madha\Desktop\AIC\Assignment 2\ts18sl_scl.lib(756): Ignoring unknown model parameter. This may or may not be a problem.
+ binflag = 1 lref = 1e14 wref = 1e14 tref = 25 
  ^^^^^^^^^^^^
C:\Users\madha\Desktop\AIC\Assignment 2\ts18sl_scl.lib(756): Ignoring unknown model parameter. This may or may not be a problem.
+ binflag = 1 lref = 1e14 wref = 1e14 tref = 25 
              ^^^^^^^^^^^^
C:\Users\madha\Desktop\AIC\Assignment 2\ts18sl_scl.lib(756): Ignoring unknown model parameter. This may or may not be a problem.
+ binflag = 1 lref = 1e14 wref = 1e14 tref = 25 
                          ^^^^^^^^^^^^
C:\Users\madha\Desktop\AIC\Assignment 2\ts18sl_scl.lib(757): Ignoring unknown model parameter. This may or may not be a problem.
+ xl = 0 xw = 0 lmlt = 1 wmlt = 1 
                ^^^^^^^^^
C:\Users\madha\Desktop\AIC\Assignment 2\ts18sl_scl.lib(757): Ignoring unknown model parameter. This may or may not be a problem.
+ xl = 0 xw = 0 lmlt = 1 wmlt = 1 
+ rd = 0 rdc = 0 rs = 0 rsc = 0 
                         ^^^^^^^^^^^^
C:\Users\madha\Desktop\AIC\Assignment 2\ts18sl_scl.lib(758): Ignoring unknown model parameter. This may or may not be a problem.
+ rd = 0 rdc = 0 rs = 0 rsc = 0 
         ^^^^^^^^
C:\Users\madha\Desktop\AIC\Assignment 2\ts18sl_scl.lib(758): Ignoring unknown model parameter. This may or may not be a problem.
+ rd = 0 rdc = 0 rs = 0 rsc = 0 
+ acm = 12 hdif = 0.15e-6 ldif = 0 calcacm = 1 )
                        ^^^^^^^^^^^
C:\Users\madha\Desktop\AIC\Assignment 2\ts18sl_scl.lib(820): Ignoring unknown model parameter. This may or may not be a problem.
+ binflag = 1 lref = 1e14 wref = 1e14 tref = 25 
  ^^^^^^^^^^^^
C:\Users\madha\Desktop\AIC\Assignment 2\ts18sl_scl.lib(820): Ignoring unknown model parameter. This may or may not be a problem.
+ binflag = 1 lref = 1e14 wref = 1e14 tref = 25 
              ^^^^^^^^^^^^
C:\Users\madha\Desktop\AIC\Assignment 2\ts18sl_scl.lib(820): Ignoring unknown model parameter. This may or may not be a problem.
+ binflag = 1 lref = 1e14 wref = 1e14 tref = 25 
                          ^^^^^^^^^^^^
C:\Users\madha\Desktop\AIC\Assignment 2\ts18sl_scl.lib(821): Ignoring unknown model parameter. This may or may not be a problem.
+ xl = 0 xw = 0 lmlt = 1 wmlt = 1 
                ^^^^^^^^^
C:\Users\madha\Desktop\AIC\Assignment 2\ts18sl_scl.lib(821): Ignoring unknown model parameter. This may or may not be a problem.
+ xl = 0 xw = 0 lmlt = 1 wmlt = 1 
+ rd = 0 rdc = 0 rs = 0 rsc = 0 
                         ^^^^^^^^^^^^
C:\Users\madha\Desktop\AIC\Assignment 2\ts18sl_scl.lib(822): Ignoring unknown model parameter. This may or may not be a problem.
+ rd = 0 rdc = 0 rs = 0 rsc = 0 
         ^^^^^^^^
C:\Users\madha\Desktop\AIC\Assignment 2\ts18sl_scl.lib(822): Ignoring unknown model parameter. This may or may not be a problem.
+ rd = 0 rdc = 0 rs = 0 rsc = 0 
+ acm = 12 hdif = 0.15e-6 ldif = 0 calcacm = 1 )
                        ^^^^^^^^^^^
C:\Users\madha\Desktop\AIC\Assignment 2\ts18sl_scl.lib(884): Ignoring unknown model parameter. This may or may not be a problem.
+ binflag = 1 lref = 1e14 wref = 1e14 tref = 25 
  ^^^^^^^^^^^^
C:\Users\madha\Desktop\AIC\Assignment 2\ts18sl_scl.lib(884): Ignoring unknown model parameter. This may or may not be a problem.
+ binflag = 1 lref = 1e14 wref = 1e14 tref = 25 
              ^^^^^^^^^^^^
C:\Users\madha\Desktop\AIC\Assignment 2\ts18sl_scl.lib(884): Ignoring unknown model parameter. This may or may not be a problem.
+ binflag = 1 lref = 1e14 wref = 1e14 tref = 25 
                          ^^^^^^^^^^^^
C:\Users\madha\Desktop\AIC\Assignment 2\ts18sl_scl.lib(885): Ignoring unknown model parameter. This may or may not be a problem.
+ xl = 0 xw = 0 lmlt = 1 wmlt = 1 
                ^^^^^^^^^
C:\Users\madha\Desktop\AIC\Assignment 2\ts18sl_scl.lib(885): Ignoring unknown model parameter. This may or may not be a problem.
+ xl = 0 xw = 0 lmlt = 1 wmlt = 1 
+ rd = 0 rdc = 0 rs = 0 rsc = 0 
                         ^^^^^^^^^^^^
C:\Users\madha\Desktop\AIC\Assignment 2\ts18sl_scl.lib(886): Ignoring unknown model parameter. This may or may not be a problem.
+ rd = 0 rdc = 0 rs = 0 rsc = 0 
         ^^^^^^^^
C:\Users\madha\Desktop\AIC\Assignment 2\ts18sl_scl.lib(886): Ignoring unknown model parameter. This may or may not be a problem.
+ rd = 0 rdc = 0 rs = 0 rsc = 0 
+ acm = 12 hdif = 0.15e-6 ldif = 0 calcacm = 1 )
                        ^^^^^^^^^^^
C:\Users\madha\Desktop\AIC\Assignment 2\ts18sl_scl.lib(948): Ignoring unknown model parameter. This may or may not be a problem.
+ binflag = 1 lref = 1e14 wref = 1e14 tref = 25 
  ^^^^^^^^^^^^
C:\Users\madha\Desktop\AIC\Assignment 2\ts18sl_scl.lib(948): Ignoring unknown model parameter. This may or may not be a problem.
+ binflag = 1 lref = 1e14 wref = 1e14 tref = 25 
              ^^^^^^^^^^^^
C:\Users\madha\Desktop\AIC\Assignment 2\ts18sl_scl.lib(948): Ignoring unknown model parameter. This may or may not be a problem.
+ binflag = 1 lref = 1e14 wref = 1e14 tref = 25 
                          ^^^^^^^^^^^^
C:\Users\madha\Desktop\AIC\Assignment 2\ts18sl_scl.lib(949): Ignoring unknown model parameter. This may or may not be a problem.
+ xl = 0 xw = 0 lmlt = 1 wmlt = 1 
                ^^^^^^^^^
C:\Users\madha\Desktop\AIC\Assignment 2\ts18sl_scl.lib(949): Ignoring unknown model parameter. This may or may not be a problem.
+ xl = 0 xw = 0 lmlt = 1 wmlt = 1 
+ rd = 0 rdc = 0 rs = 0 rsc = 0 
                         ^^^^^^^^^^^^
C:\Users\madha\Desktop\AIC\Assignment 2\ts18sl_scl.lib(950): Ignoring unknown model parameter. This may or may not be a problem.
+ rd = 0 rdc = 0 rs = 0 rsc = 0 
         ^^^^^^^^
C:\Users\madha\Desktop\AIC\Assignment 2\ts18sl_scl.lib(950): Ignoring unknown model parameter. This may or may not be a problem.
+ rd = 0 rdc = 0 rs = 0 rsc = 0 
+ acm = 12 hdif = 0.15e-6 ldif = 0 calcacm = 1 )
                        ^^^^^^^^^^^
C:\Users\madha\Desktop\AIC\Assignment 2\ts18sl_scl.lib(1012): Ignoring unknown model parameter. This may or may not be a problem.
+ binflag = 1 lref = 1e14 wref = 1e14 tref = 25 
  ^^^^^^^^^^^^
C:\Users\madha\Desktop\AIC\Assignment 2\ts18sl_scl.lib(1012): Ignoring unknown model parameter. This may or may not be a problem.
+ binflag = 1 lref = 1e14 wref = 1e14 tref = 25 
              ^^^^^^^^^^^^
C:\Users\madha\Desktop\AIC\Assignment 2\ts18sl_scl.lib(1012): Ignoring unknown model parameter. This may or may not be a problem.
+ binflag = 1 lref = 1e14 wref = 1e14 tref = 25 
                          ^^^^^^^^^^^^
C:\Users\madha\Desktop\AIC\Assignment 2\ts18sl_scl.lib(1013): Ignoring unknown model parameter. This may or may not be a problem.
+ xl = 0 xw = 0 lmlt = 1 wmlt = 1 
                ^^^^^^^^^
C:\Users\madha\Desktop\AIC\Assignment 2\ts18sl_scl.lib(1013): Ignoring unknown model parameter. This may or may not be a problem.
+ xl = 0 xw = 0 lmlt = 1 wmlt = 1 
+ rd = 0 rdc = 0 rs = 0 rsc = 0 
                         ^^^^^^^^^^^^
C:\Users\madha\Desktop\AIC\Assignment 2\ts18sl_scl.lib(1014): Ignoring unknown model parameter. This may or may not be a problem.
+ rd = 0 rdc = 0 rs = 0 rsc = 0 
         ^^^^^^^^
C:\Users\madha\Desktop\AIC\Assignment 2\ts18sl_scl.lib(1014): Ignoring unknown model parameter. This may or may not be a problem.
+ rd = 0 rdc = 0 rs = 0 rsc = 0 
+ acm = 12 hdif = 0.15e-6 ldif = 0 calcacm = 1 )
                        ^^^^^^^^^^^
C:\Users\madha\Desktop\AIC\Assignment 2\ts18sl_scl.lib(1075): Ignoring unknown model parameter. This may or may not be a problem.
+ binflag = 1 lref = 1e14 wref = 1e14 tref = 25 
  ^^^^^^^^^^^^
C:\Users\madha\Desktop\AIC\Assignment 2\ts18sl_scl.lib(1075): Ignoring unknown model parameter. This may or may not be a problem.
+ binflag = 1 lref = 1e14 wref = 1e14 tref = 25 
              ^^^^^^^^^^^^
C:\Users\madha\Desktop\AIC\Assignment 2\ts18sl_scl.lib(1075): Ignoring unknown model parameter. This may or may not be a problem.
+ binflag = 1 lref = 1e14 wref = 1e14 tref = 25 
                          ^^^^^^^^^^^^
C:\Users\madha\Desktop\AIC\Assignment 2\ts18sl_scl.lib(1076): Ignoring unknown model parameter. This may or may not be a problem.
+ xl = 0 xw = 0 lmlt = 1 wmlt = 1 
                ^^^^^^^^^
C:\Users\madha\Desktop\AIC\Assignment 2\ts18sl_scl.lib(1076): Ignoring unknown model parameter. This may or may not be a problem.
+ xl = 0 xw = 0 lmlt = 1 wmlt = 1 
+ rd = 0 rdc = 0 rs = 0 rsc = 0 
                         ^^^^^^^^^^^^
C:\Users\madha\Desktop\AIC\Assignment 2\ts18sl_scl.lib(1077): Ignoring unknown model parameter. This may or may not be a problem.
+ rd = 0 rdc = 0 rs = 0 rsc = 0 
         ^^^^^^^^
C:\Users\madha\Desktop\AIC\Assignment 2\ts18sl_scl.lib(1077): Ignoring unknown model parameter. This may or may not be a problem.
+ rd = 0 rdc = 0 rs = 0 rsc = 0 
+ acm = 12 hdif = 0.15e-6 ldif = 0 calcacm = 1 )
                        ^^^^^^^^^^^
C:\Users\madha\Desktop\AIC\Assignment 2\ts18sl_scl.lib(1138): Ignoring unknown model parameter. This may or may not be a problem.
+ binflag = 1 lref = 1e14 wref = 1e14 tref = 25 
  ^^^^^^^^^^^^
C:\Users\madha\Desktop\AIC\Assignment 2\ts18sl_scl.lib(1138): Ignoring unknown model parameter. This may or may not be a problem.
+ binflag = 1 lref = 1e14 wref = 1e14 tref = 25 
              ^^^^^^^^^^^^
C:\Users\madha\Desktop\AIC\Assignment 2\ts18sl_scl.lib(1138): Ignoring unknown model parameter. This may or may not be a problem.
+ binflag = 1 lref = 1e14 wref = 1e14 tref = 25 
                          ^^^^^^^^^^^^
C:\Users\madha\Desktop\AIC\Assignment 2\ts18sl_scl.lib(1139): Ignoring unknown model parameter. This may or may not be a problem.
+ xl = 0 xw = 0 lmlt = 1 wmlt = 1 
                ^^^^^^^^^
C:\Users\madha\Desktop\AIC\Assignment 2\ts18sl_scl.lib(1139): Ignoring unknown model parameter. This may or may not be a problem.
+ xl = 0 xw = 0 lmlt = 1 wmlt = 1 
+ rd = 0 rdc = 0 rs = 0 rsc = 0 
                         ^^^^^^^^^^^^
C:\Users\madha\Desktop\AIC\Assignment 2\ts18sl_scl.lib(1140): Ignoring unknown model parameter. This may or may not be a problem.
+ rd = 0 rdc = 0 rs = 0 rsc = 0 
         ^^^^^^^^
C:\Users\madha\Desktop\AIC\Assignment 2\ts18sl_scl.lib(1140): Ignoring unknown model parameter. This may or may not be a problem.
+ rd = 0 rdc = 0 rs = 0 rsc = 0 
+ acm = 12 hdif = 0.15e-6 ldif = 0 calcacm = 1 )
                        ^^^^^^^^^^^
C:\Users\madha\Desktop\AIC\Assignment 2\ts18sl_scl.lib(1201): Ignoring unknown model parameter. This may or may not be a problem.
+ binflag = 1 lref = 1e14 wref = 1e14 tref = 25 
  ^^^^^^^^^^^^
C:\Users\madha\Desktop\AIC\Assignment 2\ts18sl_scl.lib(1201): Ignoring unknown model parameter. This may or may not be a problem.
+ binflag = 1 lref = 1e14 wref = 1e14 tref = 25 
              ^^^^^^^^^^^^
C:\Users\madha\Desktop\AIC\Assignment 2\ts18sl_scl.lib(1201): Ignoring unknown model parameter. This may or may not be a problem.
+ binflag = 1 lref = 1e14 wref = 1e14 tref = 25 
                          ^^^^^^^^^^^^
C:\Users\madha\Desktop\AIC\Assignment 2\ts18sl_scl.lib(1202): Ignoring unknown model parameter. This may or may not be a problem.
+ xl = 0 xw = 0 lmlt = 1 wmlt = 1 
                ^^^^^^^^^
C:\Users\madha\Desktop\AIC\Assignment 2\ts18sl_scl.lib(1202): Ignoring unknown model parameter. This may or may not be a problem.
+ xl = 0 xw = 0 lmlt = 1 wmlt = 1 
+ rd = 0 rdc = 0 rs = 0 rsc = 0 
                         ^^^^^^^^^^^^
C:\Users\madha\Desktop\AIC\Assignment 2\ts18sl_scl.lib(1203): Ignoring unknown model parameter. This may or may not be a problem.
+ rd = 0 rdc = 0 rs = 0 rsc = 0 
         ^^^^^^^^
C:\Users\madha\Desktop\AIC\Assignment 2\ts18sl_scl.lib(1203): Ignoring unknown model parameter. This may or may not be a problem.
+ rd = 0 rdc = 0 rs = 0 rsc = 0 
+ acm = 12 hdif = 0.15e-6 ldif = 0 calcacm = 1 )
                        ^^^^^^^^^^^
C:\Users\madha\Desktop\AIC\Assignment 2\ts18sl_scl.lib(1264): Ignoring unknown model parameter. This may or may not be a problem.
+ binflag = 1 lref = 1e14 wref = 1e14 tref = 25 
  ^^^^^^^^^^^^
C:\Users\madha\Desktop\AIC\Assignment 2\ts18sl_scl.lib(1264): Ignoring unknown model parameter. This may or may not be a problem.
+ binflag = 1 lref = 1e14 wref = 1e14 tref = 25 
              ^^^^^^^^^^^^
C:\Users\madha\Desktop\AIC\Assignment 2\ts18sl_scl.lib(1264): Ignoring unknown model parameter. This may or may not be a problem.
+ binflag = 1 lref = 1e14 wref = 1e14 tref = 25 
                          ^^^^^^^^^^^^
C:\Users\madha\Desktop\AIC\Assignment 2\ts18sl_scl.lib(1265): Ignoring unknown model parameter. This may or may not be a problem.
+ xl = 0 xw = 0 lmlt = 1 wmlt = 1 
                ^^^^^^^^^
C:\Users\madha\Desktop\AIC\Assignment 2\ts18sl_scl.lib(1265): Ignoring unknown model parameter. This may or may not be a problem.
+ xl = 0 xw = 0 lmlt = 1 wmlt = 1 
+ rd = 0 rdc = 0 rs = 0 rsc = 0 
                         ^^^^^^^^^^^^
C:\Users\madha\Desktop\AIC\Assignment 2\ts18sl_scl.lib(1266): Ignoring unknown model parameter. This may or may not be a problem.
+ rd = 0 rdc = 0 rs = 0 rsc = 0 
         ^^^^^^^^
C:\Users\madha\Desktop\AIC\Assignment 2\ts18sl_scl.lib(1266): Ignoring unknown model parameter. This may or may not be a problem.
+ rd = 0 rdc = 0 rs = 0 rsc = 0 
+ acm = 12 hdif = 0.15e-6 ldif = 0 calcacm = 1 )
                        ^^^^^^^^^^^
C:\Users\madha\Desktop\AIC\Assignment 2\ts18sl_scl.lib(1327): Ignoring unknown model parameter. This may or may not be a problem.
+ binflag = 1 lref = 1e14 wref = 1e14 tref = 25 
  ^^^^^^^^^^^^
C:\Users\madha\Desktop\AIC\Assignment 2\ts18sl_scl.lib(1327): Ignoring unknown model parameter. This may or may not be a problem.
+ binflag = 1 lref = 1e14 wref = 1e14 tref = 25 
              ^^^^^^^^^^^^
C:\Users\madha\Desktop\AIC\Assignment 2\ts18sl_scl.lib(1327): Ignoring unknown model parameter. This may or may not be a problem.
+ binflag = 1 lref = 1e14 wref = 1e14 tref = 25 
                          ^^^^^^^^^^^^
C:\Users\madha\Desktop\AIC\Assignment 2\ts18sl_scl.lib(1328): Ignoring unknown model parameter. This may or may not be a problem.
+ xl = 0 xw = 0 lmlt = 1 wmlt = 1 
                ^^^^^^^^^
C:\Users\madha\Desktop\AIC\Assignment 2\ts18sl_scl.lib(1328): Ignoring unknown model parameter. This may or may not be a problem.
+ xl = 0 xw = 0 lmlt = 1 wmlt = 1 
+ rd = 0 rdc = 0 rs = 0 rsc = 0 
                         ^^^^^^^^^^^^
C:\Users\madha\Desktop\AIC\Assignment 2\ts18sl_scl.lib(1329): Ignoring unknown model parameter. This may or may not be a problem.
+ rd = 0 rdc = 0 rs = 0 rsc = 0 
         ^^^^^^^^
C:\Users\madha\Desktop\AIC\Assignment 2\ts18sl_scl.lib(1329): Ignoring unknown model parameter. This may or may not be a problem.
+ rd = 0 rdc = 0 rs = 0 rsc = 0 
+ acm = 12 hdif = 0.15e-6 ldif = 0 calcacm = 1 )
                        ^^^^^^^^^^^
C:\Users\madha\Desktop\AIC\Assignment 2\ts18sl_scl.lib(1390): Ignoring unknown model parameter. This may or may not be a problem.
+ binflag = 1 lref = 1e14 wref = 1e14 tref = 25 
  ^^^^^^^^^^^^
C:\Users\madha\Desktop\AIC\Assignment 2\ts18sl_scl.lib(1390): Ignoring unknown model parameter. This may or may not be a problem.
+ binflag = 1 lref = 1e14 wref = 1e14 tref = 25 
              ^^^^^^^^^^^^
C:\Users\madha\Desktop\AIC\Assignment 2\ts18sl_scl.lib(1390): Ignoring unknown model parameter. This may or may not be a problem.
+ binflag = 1 lref = 1e14 wref = 1e14 tref = 25 
                          ^^^^^^^^^^^^
C:\Users\madha\Desktop\AIC\Assignment 2\ts18sl_scl.lib(1391): Ignoring unknown model parameter. This may or may not be a problem.
+ xl = 0 xw = 0 lmlt = 1 wmlt = 1 
                ^^^^^^^^^
C:\Users\madha\Desktop\AIC\Assignment 2\ts18sl_scl.lib(1391): Ignoring unknown model parameter. This may or may not be a problem.
+ xl = 0 xw = 0 lmlt = 1 wmlt = 1 
+ rd = 0 rdc = 0 rs = 0 rsc = 0 
                         ^^^^^^^^^^^^
C:\Users\madha\Desktop\AIC\Assignment 2\ts18sl_scl.lib(1392): Ignoring unknown model parameter. This may or may not be a problem.
+ rd = 0 rdc = 0 rs = 0 rsc = 0 
         ^^^^^^^^
C:\Users\madha\Desktop\AIC\Assignment 2\ts18sl_scl.lib(1392): Ignoring unknown model parameter. This may or may not be a problem.
+ rd = 0 rdc = 0 rs = 0 rsc = 0 
+ acm = 12 hdif = 0.15e-6 ldif = 0 calcacm = 1 )
                        ^^^^^^^^^^^
C:\Users\madha\Desktop\AIC\Assignment 2\ts18sl_scl.lib(1453): Ignoring unknown model parameter. This may or may not be a problem.
+ binflag = 1 lref = 1e14 wref = 1e14 tref = 25 
  ^^^^^^^^^^^^
C:\Users\madha\Desktop\AIC\Assignment 2\ts18sl_scl.lib(1453): Ignoring unknown model parameter. This may or may not be a problem.
+ binflag = 1 lref = 1e14 wref = 1e14 tref = 25 
              ^^^^^^^^^^^^
C:\Users\madha\Desktop\AIC\Assignment 2\ts18sl_scl.lib(1453): Ignoring unknown model parameter. This may or may not be a problem.
+ binflag = 1 lref = 1e14 wref = 1e14 tref = 25 
                          ^^^^^^^^^^^^
C:\Users\madha\Desktop\AIC\Assignment 2\ts18sl_scl.lib(1454): Ignoring unknown model parameter. This may or may not be a problem.
+ xl = 0 xw = 0 lmlt = 1 wmlt = 1 
                ^^^^^^^^^
C:\Users\madha\Desktop\AIC\Assignment 2\ts18sl_scl.lib(1454): Ignoring unknown model parameter. This may or may not be a problem.
+ xl = 0 xw = 0 lmlt = 1 wmlt = 1 
+ rd = 0 rdc = 0 rs = 0 rsc = 0 
                         ^^^^^^^^^^^^
C:\Users\madha\Desktop\AIC\Assignment 2\ts18sl_scl.lib(1455): Ignoring unknown model parameter. This may or may not be a problem.
+ rd = 0 rdc = 0 rs = 0 rsc = 0 
         ^^^^^^^^
C:\Users\madha\Desktop\AIC\Assignment 2\ts18sl_scl.lib(1455): Ignoring unknown model parameter. This may or may not be a problem.
+ rd = 0 rdc = 0 rs = 0 rsc = 0 
+ acm = 12 hdif = 0.15e-6 ldif = 0 calcacm = 1 )
                        ^^^^^^^^^^^
C:\Users\madha\Desktop\AIC\Assignment 2\ts18sl_scl.lib(1516): Ignoring unknown model parameter. This may or may not be a problem.
+ binflag = 1 lref = 1e14 wref = 1e14 tref = 25 
  ^^^^^^^^^^^^
C:\Users\madha\Desktop\AIC\Assignment 2\ts18sl_scl.lib(1516): Ignoring unknown model parameter. This may or may not be a problem.
+ binflag = 1 lref = 1e14 wref = 1e14 tref = 25 
              ^^^^^^^^^^^^
C:\Users\madha\Desktop\AIC\Assignment 2\ts18sl_scl.lib(1516): Ignoring unknown model parameter. This may or may not be a problem.
+ binflag = 1 lref = 1e14 wref = 1e14 tref = 25 
                          ^^^^^^^^^^^^
C:\Users\madha\Desktop\AIC\Assignment 2\ts18sl_scl.lib(1517): Ignoring unknown model parameter. This may or may not be a problem.
+ xl = 0 xw = 0 lmlt = 1 wmlt = 1 
                ^^^^^^^^^
C:\Users\madha\Desktop\AIC\Assignment 2\ts18sl_scl.lib(1517): Ignoring unknown model parameter. This may or may not be a problem.
+ xl = 0 xw = 0 lmlt = 1 wmlt = 1 
+ rd = 0 rdc = 0 rs = 0 rsc = 0 
                         ^^^^^^^^^^^^
C:\Users\madha\Desktop\AIC\Assignment 2\ts18sl_scl.lib(1518): Ignoring unknown model parameter. This may or may not be a problem.
+ rd = 0 rdc = 0 rs = 0 rsc = 0 
         ^^^^^^^^
C:\Users\madha\Desktop\AIC\Assignment 2\ts18sl_scl.lib(1518): Ignoring unknown model parameter. This may or may not be a problem.
+ rd = 0 rdc = 0 rs = 0 rsc = 0 
+ acm = 12 hdif = 0.15e-6 ldif = 0 calcacm = 1 )
                        ^^^^^^^^^^^
.step lambda=5.4e-07
Total elapsed time: 4.867 seconds.

Files loaded:
C:\Users\madha\Desktop\AIC\Assignment 2\q3_copy.net
C:\Users\madha\AppData\Local\LTspice\lib\cmp\standard.mos
C:\Users\madha\Desktop\AIC\Assignment 2\ts18sl_scl.lib

